
    <configuration>
        <input>
            <net-file value="map.net.xml"/>
            <route-files value="Final_routes.rou.xml"/>
        </input>
        <time>
            <begin value="0"/>
            <end value="300"/>
        </time>
    </configuration>
    