<?xml version="1.0" encoding="UTF-8"?>

<!-- generated on 2024-08-05 10:44:35 by Eclipse SUMO netconvert Version 1.20.0
<configuration xmlns:xsi="http://www.w3.org/2001/XMLSchema-instance" xsi:noNamespaceSchemaLocation="http://sumo.dlr.de/xsd/netconvertConfiguration.xsd">

    <input>
        <osm-files value="E:\finale-submission\backend\config\map.osm"/>
    </input>

    <output>
        <output-file value="E:\finale-submission\backend\config\map.net.xml"/>
    </output>

    <projection>
        <proj.utm value="true"/>
    </projection>

</configuration>
-->

<net version="1.20" junctionCornerDetail="5" limitTurnSpeed="5.50" xmlns:xsi="http://www.w3.org/2001/XMLSchema-instance" xsi:noNamespaceSchemaLocation="http://sumo.dlr.de/xsd/net_file.xsd">

    <location netOffset="-469426.59,-2652260.63" convBoundary="0.00,0.00,10671.93,9970.04" origBoundary="74.699325,23.982013,74.804237,24.072107" projParameter="+proj=utm +zone=43 +ellps=WGS84 +datum=WGS84 +units=m +no_defs"/>

    <type id="highway.primary" priority="12" numLanes="2" speed="27.78" disallow="tram rail_urban rail rail_electric rail_fast ship container cable_car subway aircraft wheelchair scooter drone" oneway="0"/>
    <type id="highway.residential" priority="3" numLanes="1" speed="13.89" disallow="tram rail_urban rail rail_electric rail_fast ship container cable_car subway aircraft wheelchair scooter drone" oneway="0"/>
    <type id="highway.secondary" priority="11" numLanes="1" speed="27.78" disallow="tram rail_urban rail rail_electric rail_fast ship container cable_car subway aircraft wheelchair scooter drone" oneway="0"/>
    <type id="highway.tertiary" priority="10" numLanes="1" speed="22.22" disallow="tram rail_urban rail rail_electric rail_fast ship container cable_car subway aircraft wheelchair scooter drone" oneway="0"/>
    <type id="highway.trunk" priority="13" numLanes="2" speed="27.78" disallow="pedestrian bicycle tram rail_urban rail rail_electric rail_fast ship container cable_car subway aircraft wheelchair scooter drone" oneway="0"/>
    <type id="highway.unclassified" priority="4" numLanes="1" speed="13.89" disallow="tram rail_urban rail rail_electric rail_fast ship container cable_car subway aircraft wheelchair scooter drone" oneway="0"/>

    <edge id=":11434275750_0" function="internal">
        <lane id=":11434275750_0_0" index="0" disallow="pedestrian bicycle tram rail_urban rail rail_electric rail_fast ship container cable_car subway aircraft wheelchair scooter drone" speed="6.74" length="10.25" shape="7236.12,2486.16 7234.50,2484.24 7232.49,2483.44 7230.08,2483.76 7227.28,2485.19"/>
    </edge>
    <edge id=":11434275750_1" function="internal">
        <lane id=":11434275750_1_0" index="0" disallow="pedestrian bicycle tram rail_urban rail rail_electric rail_fast ship container cable_car subway aircraft wheelchair scooter drone" speed="6.74" length="10.25" shape="7236.12,2486.16 7234.50,2484.24 7232.49,2483.44 7230.08,2483.76 7227.28,2485.19"/>
    </edge>
    <edge id=":11434275750_2" function="internal">
        <lane id=":11434275750_2_0" index="0" disallow="pedestrian bicycle tram rail_urban rail rail_electric rail_fast ship container cable_car subway aircraft wheelchair scooter drone" speed="19.54" length="15.24" shape="7236.12,2486.16 7234.00,2483.04 7231.43,2480.20 7228.54,2477.67 7225.44,2475.48"/>
    </edge>
    <edge id=":11434275750_3" function="internal">
        <lane id=":11434275750_3_0" index="0" disallow="pedestrian bicycle tram rail_urban rail rail_electric rail_fast ship container cable_car subway aircraft wheelchair scooter drone" speed="19.54" length="15.24" shape="7236.12,2486.16 7234.00,2483.04 7231.43,2480.20 7228.54,2477.67 7225.44,2475.48"/>
    </edge>
    <edge id=":11434275750_4" function="internal">
        <lane id=":11434275750_4_0" index="0" disallow="pedestrian bicycle tram rail_urban rail rail_electric rail_fast ship container cable_car subway aircraft wheelchair scooter drone" speed="3.24" length="1.52" shape="7236.12,2486.16 7237.43,2485.41"/>
    </edge>
    <edge id=":11434275750_5" function="internal">
        <lane id=":11434275750_5_0" index="0" disallow="pedestrian bicycle tram rail_urban rail rail_electric rail_fast ship container cable_car subway aircraft wheelchair scooter drone" speed="3.65" length="1.44" shape="7236.12,2486.16 7236.22,2484.72"/>
    </edge>
    <edge id=":11434275750_36" function="internal">
        <lane id=":11434275750_36_0" index="0" disallow="pedestrian bicycle tram rail_urban rail rail_electric rail_fast ship container cable_car subway aircraft wheelchair scooter drone" speed="3.24" length="1.68" shape="7237.43,2485.41 7238.90,2484.57"/>
    </edge>
    <edge id=":11434275750_37" function="internal">
        <lane id=":11434275750_37_0" index="0" disallow="pedestrian bicycle tram rail_urban rail rail_electric rail_fast ship container cable_car subway aircraft wheelchair scooter drone" speed="3.65" length="3.23" shape="7236.22,2484.72 7236.71,2483.98 7237.61,2483.93 7238.90,2484.57"/>
    </edge>
    <edge id=":11434275750_6" function="internal">
        <lane id=":11434275750_6_0" index="0" disallow="pedestrian bicycle tram rail_urban rail rail_electric rail_fast ship container cable_car subway aircraft wheelchair scooter drone" speed="20.48" length="16.76" shape="7227.16,2472.78 7230.42,2475.15 7233.68,2478.06 7236.61,2481.28 7238.90,2484.57"/>
    </edge>
    <edge id=":11434275750_7" function="internal">
        <lane id=":11434275750_7_0" index="0" disallow="pedestrian bicycle tram rail_urban rail rail_electric rail_fast ship container cable_car subway aircraft wheelchair scooter drone" speed="20.48" length="16.76" shape="7227.16,2472.78 7230.42,2475.15 7233.68,2478.06 7236.61,2481.28 7238.90,2484.57"/>
    </edge>
    <edge id=":11434275750_8" function="internal">
        <lane id=":11434275750_8_0" index="0" disallow="pedestrian bicycle tram rail_urban rail rail_electric rail_fast ship container cable_car subway aircraft wheelchair scooter drone" speed="7.47" length="5.24" shape="7227.16,2472.78 7230.77,2475.85 7230.95,2476.32"/>
    </edge>
    <edge id=":11434275750_9" function="internal">
        <lane id=":11434275750_9_0" index="0" disallow="pedestrian bicycle tram rail_urban rail rail_electric rail_fast ship container cable_car subway aircraft wheelchair scooter drone" speed="7.47" length="5.24" shape="7227.16,2472.78 7230.77,2475.85 7230.95,2476.32"/>
    </edge>
    <edge id=":11434275750_10" function="internal">
        <lane id=":11434275750_10_0" index="0" disallow="pedestrian bicycle tram rail_urban rail rail_electric rail_fast ship container cable_car subway aircraft wheelchair scooter drone" speed="3.24" length="1.64" shape="7227.16,2472.78 7226.28,2474.17"/>
    </edge>
    <edge id=":11434275750_11" function="internal">
        <lane id=":11434275750_11_0" index="0" disallow="pedestrian bicycle tram rail_urban rail rail_electric rail_fast ship container cable_car subway aircraft wheelchair scooter drone" speed="3.65" length="1.44" shape="7227.16,2472.78 7227.74,2474.10"/>
    </edge>
    <edge id=":11434275750_38" function="internal">
        <lane id=":11434275750_38_0" index="0" disallow="pedestrian bicycle tram rail_urban rail rail_electric rail_fast ship container cable_car subway aircraft wheelchair scooter drone" speed="7.47" length="10.88" shape="7230.95,2476.32 7231.99,2478.94 7230.82,2482.06 7227.28,2485.19"/>
    </edge>
    <edge id=":11434275750_39" function="internal">
        <lane id=":11434275750_39_0" index="0" disallow="pedestrian bicycle tram rail_urban rail rail_electric rail_fast ship container cable_car subway aircraft wheelchair scooter drone" speed="7.47" length="10.88" shape="7230.95,2476.32 7231.99,2478.94 7230.82,2482.06 7227.28,2485.19"/>
    </edge>
    <edge id=":11434275750_40" function="internal">
        <lane id=":11434275750_40_0" index="0" disallow="pedestrian bicycle tram rail_urban rail rail_electric rail_fast ship container cable_car subway aircraft wheelchair scooter drone" speed="3.24" length="1.56" shape="7226.28,2474.17 7225.44,2475.48"/>
    </edge>
    <edge id=":11434275750_41" function="internal">
        <lane id=":11434275750_41_0" index="0" disallow="pedestrian bicycle tram rail_urban rail rail_electric rail_fast ship container cable_car subway aircraft wheelchair scooter drone" speed="3.65" length="3.23" shape="7227.74,2474.10 7227.65,2474.99 7226.88,2475.45 7225.44,2475.48"/>
    </edge>
    <edge id=":11434275750_12" function="internal">
        <lane id=":11434275750_12_0" index="0" disallow="pedestrian bicycle tram rail_urban rail rail_electric rail_fast ship container cable_car subway aircraft wheelchair scooter drone" speed="20.48" length="16.76" shape="7227.16,2472.78 7230.42,2475.15 7233.68,2478.06 7236.61,2481.28 7238.90,2484.57"/>
    </edge>
    <edge id=":11434275750_13" function="internal">
        <lane id=":11434275750_13_0" index="0" disallow="pedestrian bicycle tram rail_urban rail rail_electric rail_fast ship container cable_car subway aircraft wheelchair scooter drone" speed="20.48" length="16.76" shape="7227.16,2472.78 7230.42,2475.15 7233.68,2478.06 7236.61,2481.28 7238.90,2484.57"/>
    </edge>
    <edge id=":11434275750_14" function="internal">
        <lane id=":11434275750_14_0" index="0" disallow="pedestrian bicycle tram rail_urban rail rail_electric rail_fast ship container cable_car subway aircraft wheelchair scooter drone" speed="7.47" length="16.12" shape="7227.16,2472.78 7230.77,2475.85 7231.99,2478.94 7230.82,2482.06 7227.28,2485.19"/>
    </edge>
    <edge id=":11434275750_15" function="internal">
        <lane id=":11434275750_15_0" index="0" disallow="pedestrian bicycle tram rail_urban rail rail_electric rail_fast ship container cable_car subway aircraft wheelchair scooter drone" speed="7.47" length="16.12" shape="7227.16,2472.78 7230.77,2475.85 7231.99,2478.94 7230.82,2482.06 7227.28,2485.19"/>
    </edge>
    <edge id=":11434275750_16" function="internal">
        <lane id=":11434275750_16_0" index="0" disallow="pedestrian bicycle tram rail_urban rail rail_electric rail_fast ship container cable_car subway aircraft wheelchair scooter drone" speed="3.24" length="3.20" shape="7227.16,2472.78 7225.44,2475.48"/>
    </edge>
    <edge id=":11434275750_17" function="internal">
        <lane id=":11434275750_17_0" index="0" disallow="pedestrian bicycle tram rail_urban rail rail_electric rail_fast ship container cable_car subway aircraft wheelchair scooter drone" speed="3.65" length="4.67" shape="7227.16,2472.78 7227.74,2474.10 7227.65,2474.99 7226.88,2475.45 7225.44,2475.48"/>
    </edge>
    <edge id=":11434275750_18" function="internal">
        <lane id=":11434275750_18_0" index="0" disallow="pedestrian bicycle tram rail_urban rail rail_electric rail_fast ship container cable_car subway aircraft wheelchair scooter drone" speed="5.79" length="9.15" shape="7225.51,2482.53 7227.52,2480.75 7228.18,2478.98 7227.49,2477.22 7225.44,2475.48"/>
    </edge>
    <edge id=":11434275750_19" function="internal">
        <lane id=":11434275750_19_0" index="0" disallow="pedestrian bicycle tram rail_urban rail rail_electric rail_fast ship container cable_car subway aircraft wheelchair scooter drone" speed="5.79" length="9.15" shape="7225.51,2482.53 7227.52,2480.75 7228.18,2478.98 7227.49,2477.22 7225.44,2475.48"/>
    </edge>
    <edge id=":11434275750_20" function="internal">
        <lane id=":11434275750_20_0" index="0" disallow="pedestrian bicycle tram rail_urban rail rail_electric rail_fast ship container cable_car subway aircraft wheelchair scooter drone" speed="8.19" length="15.66" shape="7225.51,2482.53 7229.66,2480.45 7233.28,2480.10 7236.36,2481.47 7238.90,2484.57"/>
    </edge>
    <edge id=":11434275750_21" function="internal">
        <lane id=":11434275750_21_0" index="0" disallow="pedestrian bicycle tram rail_urban rail rail_electric rail_fast ship container cable_car subway aircraft wheelchair scooter drone" speed="8.19" length="15.66" shape="7225.51,2482.53 7229.66,2480.45 7233.28,2480.10 7236.36,2481.47 7238.90,2484.57"/>
    </edge>
    <edge id=":11434275750_22" function="internal">
        <lane id=":11434275750_22_0" index="0" disallow="tram rail_urban rail rail_electric rail_fast ship container cable_car subway aircraft wheelchair scooter drone" speed="3.24" length="3.20" shape="7225.51,2482.53 7227.28,2485.19"/>
    </edge>
    <edge id=":11434275750_23" function="internal">
        <lane id=":11434275750_23_0" index="0" disallow="tram rail_urban rail rail_electric rail_fast ship container cable_car subway aircraft wheelchair scooter drone" speed="3.65" length="4.67" shape="7225.51,2482.53 7226.95,2482.53 7227.72,2482.98 7227.83,2483.86 7227.28,2485.19"/>
    </edge>
    <edge id=":11434275750_24" function="internal">
        <lane id=":11434275750_24_0" index="0" disallow="pedestrian bicycle tram rail_urban rail rail_electric rail_fast ship container cable_car subway aircraft wheelchair scooter drone" speed="5.79" length="9.15" shape="7225.51,2482.53 7227.52,2480.75 7228.18,2478.98 7227.49,2477.22 7225.44,2475.48"/>
    </edge>
    <edge id=":11434275750_25" function="internal">
        <lane id=":11434275750_25_0" index="0" disallow="pedestrian bicycle tram rail_urban rail rail_electric rail_fast ship container cable_car subway aircraft wheelchair scooter drone" speed="5.79" length="9.15" shape="7225.51,2482.53 7227.52,2480.75 7228.18,2478.98 7227.49,2477.22 7225.44,2475.48"/>
    </edge>
    <edge id=":11434275750_26" function="internal">
        <lane id=":11434275750_26_0" index="0" disallow="pedestrian bicycle tram rail_urban rail rail_electric rail_fast ship container cable_car subway aircraft wheelchair scooter drone" speed="8.19" length="15.66" shape="7225.51,2482.53 7229.66,2480.45 7233.28,2480.10 7236.36,2481.47 7238.90,2484.57"/>
    </edge>
    <edge id=":11434275750_27" function="internal">
        <lane id=":11434275750_27_0" index="0" disallow="pedestrian bicycle tram rail_urban rail rail_electric rail_fast ship container cable_car subway aircraft wheelchair scooter drone" speed="8.19" length="15.66" shape="7225.51,2482.53 7229.66,2480.45 7233.28,2480.10 7236.36,2481.47 7238.90,2484.57"/>
    </edge>
    <edge id=":11434275750_28" function="internal">
        <lane id=":11434275750_28_0" index="0" disallow="tram rail_urban rail rail_electric rail_fast ship container cable_car subway aircraft wheelchair scooter drone" speed="3.24" length="3.20" shape="7225.51,2482.53 7227.28,2485.19"/>
    </edge>
    <edge id=":11434275750_29" function="internal">
        <lane id=":11434275750_29_0" index="0" disallow="tram rail_urban rail rail_electric rail_fast ship container cable_car subway aircraft wheelchair scooter drone" speed="3.65" length="4.67" shape="7225.51,2482.53 7226.95,2482.53 7227.72,2482.98 7227.83,2483.86 7227.28,2485.19"/>
    </edge>
    <edge id=":11434275750_30" function="internal">
        <lane id=":11434275750_30_0" index="0" disallow="pedestrian bicycle tram rail_urban rail rail_electric rail_fast ship container cable_car subway aircraft wheelchair scooter drone" speed="6.74" length="10.25" shape="7236.12,2486.16 7234.50,2484.24 7232.49,2483.44 7230.08,2483.76 7227.28,2485.19"/>
    </edge>
    <edge id=":11434275750_31" function="internal">
        <lane id=":11434275750_31_0" index="0" disallow="pedestrian bicycle tram rail_urban rail rail_electric rail_fast ship container cable_car subway aircraft wheelchair scooter drone" speed="6.74" length="10.25" shape="7236.12,2486.16 7234.50,2484.24 7232.49,2483.44 7230.08,2483.76 7227.28,2485.19"/>
    </edge>
    <edge id=":11434275750_32" function="internal">
        <lane id=":11434275750_32_0" index="0" disallow="pedestrian bicycle tram rail_urban rail rail_electric rail_fast ship container cable_car subway aircraft wheelchair scooter drone" speed="19.54" length="15.24" shape="7236.12,2486.16 7234.00,2483.04 7231.43,2480.20 7228.54,2477.67 7225.44,2475.48"/>
    </edge>
    <edge id=":11434275750_33" function="internal">
        <lane id=":11434275750_33_0" index="0" disallow="pedestrian bicycle tram rail_urban rail rail_electric rail_fast ship container cable_car subway aircraft wheelchair scooter drone" speed="19.54" length="15.24" shape="7236.12,2486.16 7234.00,2483.04 7231.43,2480.20 7228.54,2477.67 7225.44,2475.48"/>
    </edge>
    <edge id=":11434275750_34" function="internal">
        <lane id=":11434275750_34_0" index="0" disallow="pedestrian bicycle tram rail_urban rail rail_electric rail_fast ship container cable_car subway aircraft wheelchair scooter drone" speed="3.24" length="3.20" shape="7236.12,2486.16 7238.90,2484.57"/>
    </edge>
    <edge id=":11434275750_35" function="internal">
        <lane id=":11434275750_35_0" index="0" disallow="pedestrian bicycle tram rail_urban rail rail_electric rail_fast ship container cable_car subway aircraft wheelchair scooter drone" speed="3.65" length="4.67" shape="7236.12,2486.16 7236.22,2484.72 7236.71,2483.98 7237.61,2483.93 7238.90,2484.57"/>
    </edge>
    <edge id=":11434275756_0" function="internal">
        <lane id=":11434275756_0_0" index="0" disallow="tram rail_urban rail rail_electric rail_fast ship container cable_car subway aircraft wheelchair scooter drone" speed="13.89" length="26.50" shape="7011.79,2628.30 7006.64,2629.83 6998.98,2630.46 6991.16,2630.50 6985.55,2630.26"/>
    </edge>
    <edge id=":11434275756_1" function="internal">
        <lane id=":11434275756_1_0" index="0" disallow="tram rail_urban rail rail_electric rail_fast ship container cable_car subway aircraft wheelchair scooter drone" speed="13.89" length="26.50" shape="7011.79,2628.30 7006.64,2629.83 6998.98,2630.46 6991.16,2630.50 6985.55,2630.26"/>
    </edge>
    <edge id=":11434275756_2" function="internal">
        <lane id=":11434275756_2_0" index="0" disallow="tram rail_urban rail rail_electric rail_fast ship container cable_car subway aircraft wheelchair scooter drone" speed="13.70" length="4.95" shape="7011.79,2628.30 7008.13,2629.35 7007.00,2629.22"/>
    </edge>
    <edge id=":11434275756_3" function="internal">
        <lane id=":11434275756_3_0" index="0" disallow="tram rail_urban rail rail_electric rail_fast ship container cable_car subway aircraft wheelchair scooter drone" speed="13.70" length="4.95" shape="7011.79,2628.30 7008.13,2629.35 7007.00,2629.22"/>
    </edge>
    <edge id=":11434275756_4" function="internal">
        <lane id=":11434275756_4_0" index="0" disallow="tram rail_urban rail rail_electric rail_fast ship container cable_car subway aircraft wheelchair scooter drone" speed="3.24" length="1.80" shape="7011.79,2628.30 7010.80,2626.80"/>
    </edge>
    <edge id=":11434275756_5" function="internal">
        <lane id=":11434275756_5_0" index="0" disallow="tram rail_urban rail rail_electric rail_fast ship container cable_car subway aircraft wheelchair scooter drone" speed="3.65" length="1.44" shape="7011.79,2628.30 7010.35,2628.30"/>
    </edge>
    <edge id=":11434275756_36" function="internal">
        <lane id=":11434275756_36_0" index="0" disallow="tram rail_urban rail rail_electric rail_fast ship container cable_car subway aircraft wheelchair scooter drone" speed="13.70" length="21.19" shape="7007.00,2629.22 7002.78,2628.74 6995.75,2626.48 6987.02,2622.57"/>
    </edge>
    <edge id=":11434275756_37" function="internal">
        <lane id=":11434275756_37_0" index="0" disallow="tram rail_urban rail rail_electric rail_fast ship container cable_car subway aircraft wheelchair scooter drone" speed="13.70" length="21.19" shape="7007.00,2629.22 7002.78,2628.74 6995.75,2626.48 6987.02,2622.57"/>
    </edge>
    <edge id=":11434275756_38" function="internal">
        <lane id=":11434275756_38_0" index="0" disallow="tram rail_urban rail rail_electric rail_fast ship container cable_car subway aircraft wheelchair scooter drone" speed="3.24" length="1.40" shape="7010.80,2626.80 7010.02,2625.64"/>
    </edge>
    <edge id=":11434275756_39" function="internal">
        <lane id=":11434275756_39_0" index="0" disallow="tram rail_urban rail rail_electric rail_fast ship container cable_car subway aircraft wheelchair scooter drone" speed="3.65" length="3.23" shape="7010.35,2628.30 7009.58,2627.85 7009.47,2626.97 7010.02,2625.64"/>
    </edge>
    <edge id=":11434275756_6" function="internal">
        <lane id=":11434275756_6_0" index="0" disallow="tram rail_urban rail rail_electric rail_fast ship container cable_car subway aircraft wheelchair scooter drone" speed="12.84" length="22.88" shape="6988.44,2619.70 6996.35,2623.32 7002.58,2625.51 7007.14,2626.29 7010.02,2625.64"/>
    </edge>
    <edge id=":11434275756_7" function="internal">
        <lane id=":11434275756_7_0" index="0" disallow="tram rail_urban rail rail_electric rail_fast ship container cable_car subway aircraft wheelchair scooter drone" speed="12.84" length="22.88" shape="6988.44,2619.70 6996.35,2623.32 7002.58,2625.51 7007.14,2626.29 7010.02,2625.64"/>
    </edge>
    <edge id=":11434275756_8" function="internal">
        <lane id=":11434275756_8_0" index="0" disallow="tram rail_urban rail rail_electric rail_fast ship container cable_car subway aircraft wheelchair scooter drone" speed="6.14" length="15.09" shape="6988.44,2619.70 6991.14,2622.55 6991.31,2626.17 6989.32,2629.18 6985.55,2630.26"/>
    </edge>
    <edge id=":11434275756_9" function="internal">
        <lane id=":11434275756_9_0" index="0" disallow="tram rail_urban rail rail_electric rail_fast ship container cable_car subway aircraft wheelchair scooter drone" speed="6.14" length="15.09" shape="6988.44,2619.70 6991.14,2622.55 6991.31,2626.17 6989.32,2629.18 6985.55,2630.26"/>
    </edge>
    <edge id=":11434275756_10" function="internal">
        <lane id=":11434275756_10_0" index="0" disallow="tram rail_urban rail rail_electric rail_fast ship container cable_car subway aircraft wheelchair scooter drone" speed="3.24" length="3.20" shape="6988.44,2619.70 6987.02,2622.57"/>
    </edge>
    <edge id=":11434275756_11" function="internal">
        <lane id=":11434275756_11_0" index="0" disallow="tram rail_urban rail rail_electric rail_fast ship container cable_car subway aircraft wheelchair scooter drone" speed="3.65" length="4.67" shape="6988.44,2619.70 6989.16,2620.95 6989.17,2621.84 6988.45,2622.38 6987.02,2622.57"/>
    </edge>
    <edge id=":11434275756_12" function="internal">
        <lane id=":11434275756_12_0" index="0" disallow="tram rail_urban rail rail_electric rail_fast ship container cable_car subway aircraft wheelchair scooter drone" speed="12.84" length="22.88" shape="6988.44,2619.70 6996.35,2623.32 7002.58,2625.51 7007.14,2626.29 7010.02,2625.64"/>
    </edge>
    <edge id=":11434275756_13" function="internal">
        <lane id=":11434275756_13_0" index="0" disallow="tram rail_urban rail rail_electric rail_fast ship container cable_car subway aircraft wheelchair scooter drone" speed="12.84" length="22.88" shape="6988.44,2619.70 6996.35,2623.32 7002.58,2625.51 7007.14,2626.29 7010.02,2625.64"/>
    </edge>
    <edge id=":11434275756_14" function="internal">
        <lane id=":11434275756_14_0" index="0" disallow="tram rail_urban rail rail_electric rail_fast ship container cable_car subway aircraft wheelchair scooter drone" speed="6.14" length="15.09" shape="6988.44,2619.70 6991.14,2622.55 6991.31,2626.17 6989.32,2629.18 6985.55,2630.26"/>
    </edge>
    <edge id=":11434275756_15" function="internal">
        <lane id=":11434275756_15_0" index="0" disallow="tram rail_urban rail rail_electric rail_fast ship container cable_car subway aircraft wheelchair scooter drone" speed="6.14" length="15.09" shape="6988.44,2619.70 6991.14,2622.55 6991.31,2626.17 6989.32,2629.18 6985.55,2630.26"/>
    </edge>
    <edge id=":11434275756_16" function="internal">
        <lane id=":11434275756_16_0" index="0" disallow="tram rail_urban rail rail_electric rail_fast ship container cable_car subway aircraft wheelchair scooter drone" speed="3.24" length="3.20" shape="6988.44,2619.70 6987.02,2622.57"/>
    </edge>
    <edge id=":11434275756_17" function="internal">
        <lane id=":11434275756_17_0" index="0" disallow="tram rail_urban rail rail_electric rail_fast ship container cable_car subway aircraft wheelchair scooter drone" speed="3.65" length="4.67" shape="6988.44,2619.70 6989.16,2620.95 6989.17,2621.84 6988.45,2622.38 6987.02,2622.57"/>
    </edge>
    <edge id=":11434275756_18" function="internal">
        <lane id=":11434275756_18_0" index="0" disallow="tram rail_urban rail rail_electric rail_fast ship container cable_car subway aircraft wheelchair scooter drone" speed="5.77" length="13.09" shape="6985.79,2627.07 6990.43,2627.13 6992.19,2626.40 6991.05,2624.88 6987.02,2622.57"/>
    </edge>
    <edge id=":11434275756_19" function="internal">
        <lane id=":11434275756_19_0" index="0" disallow="tram rail_urban rail rail_electric rail_fast ship container cable_car subway aircraft wheelchair scooter drone" speed="5.77" length="13.09" shape="6985.79,2627.07 6990.43,2627.13 6992.19,2626.40 6991.05,2624.88 6987.02,2622.57"/>
    </edge>
    <edge id=":11434275756_20" function="internal">
        <lane id=":11434275756_20_0" index="0" disallow="tram rail_urban rail rail_electric rail_fast ship container cable_car subway aircraft wheelchair scooter drone" speed="13.89" length="24.47" shape="6985.79,2627.07 6991.09,2627.39 6998.21,2627.53 7005.18,2627.08 7010.02,2625.64"/>
    </edge>
    <edge id=":11434275756_21" function="internal">
        <lane id=":11434275756_21_0" index="0" disallow="tram rail_urban rail rail_electric rail_fast ship container cable_car subway aircraft wheelchair scooter drone" speed="13.89" length="24.47" shape="6985.79,2627.07 6991.09,2627.39 6998.21,2627.53 7005.18,2627.08 7010.02,2625.64"/>
    </edge>
    <edge id=":11434275756_22" function="internal">
        <lane id=":11434275756_22_0" index="0" disallow="tram rail_urban rail rail_electric rail_fast ship container cable_car subway aircraft wheelchair scooter drone" speed="3.24" length="1.57" shape="6985.79,2627.07 6985.67,2628.64"/>
    </edge>
    <edge id=":11434275756_23" function="internal">
        <lane id=":11434275756_23_0" index="0" disallow="tram rail_urban rail rail_electric rail_fast ship container cable_car subway aircraft wheelchair scooter drone" speed="3.65" length="1.44" shape="6985.79,2627.07 6986.92,2627.96"/>
    </edge>
    <edge id=":11434275756_40" function="internal">
        <lane id=":11434275756_40_0" index="0" disallow="tram rail_urban rail rail_electric rail_fast ship container cable_car subway aircraft wheelchair scooter drone" speed="3.24" length="1.63" shape="6985.67,2628.64 6985.55,2630.26"/>
    </edge>
    <edge id=":11434275756_41" function="internal">
        <lane id=":11434275756_41_0" index="0" disallow="tram rail_urban rail rail_electric rail_fast ship container cable_car subway aircraft wheelchair scooter drone" speed="3.65" length="3.23" shape="6986.92,2627.96 6987.26,2628.79 6986.80,2629.55 6985.55,2630.26"/>
    </edge>
    <edge id=":11434275756_24" function="internal">
        <lane id=":11434275756_24_0" index="0" disallow="tram rail_urban rail rail_electric rail_fast ship container cable_car subway aircraft wheelchair scooter drone" speed="5.77" length="13.09" shape="6985.79,2627.07 6990.43,2627.13 6992.19,2626.40 6991.05,2624.88 6987.02,2622.57"/>
    </edge>
    <edge id=":11434275756_25" function="internal">
        <lane id=":11434275756_25_0" index="0" disallow="tram rail_urban rail rail_electric rail_fast ship container cable_car subway aircraft wheelchair scooter drone" speed="5.77" length="13.09" shape="6985.79,2627.07 6990.43,2627.13 6992.19,2626.40 6991.05,2624.88 6987.02,2622.57"/>
    </edge>
    <edge id=":11434275756_26" function="internal">
        <lane id=":11434275756_26_0" index="0" disallow="tram rail_urban rail rail_electric rail_fast ship container cable_car subway aircraft wheelchair scooter drone" speed="13.89" length="24.47" shape="6985.79,2627.07 6991.09,2627.39 6998.21,2627.53 7005.18,2627.08 7010.02,2625.64"/>
    </edge>
    <edge id=":11434275756_27" function="internal">
        <lane id=":11434275756_27_0" index="0" disallow="tram rail_urban rail rail_electric rail_fast ship container cable_car subway aircraft wheelchair scooter drone" speed="13.89" length="24.47" shape="6985.79,2627.07 6991.09,2627.39 6998.21,2627.53 7005.18,2627.08 7010.02,2625.64"/>
    </edge>
    <edge id=":11434275756_28" function="internal">
        <lane id=":11434275756_28_0" index="0" disallow="tram rail_urban rail rail_electric rail_fast ship container cable_car subway aircraft wheelchair scooter drone" speed="3.24" length="3.20" shape="6985.79,2627.07 6985.55,2630.26"/>
    </edge>
    <edge id=":11434275756_29" function="internal">
        <lane id=":11434275756_29_0" index="0" disallow="tram rail_urban rail rail_electric rail_fast ship container cable_car subway aircraft wheelchair scooter drone" speed="3.65" length="4.67" shape="6985.79,2627.07 6986.92,2627.96 6987.26,2628.79 6986.80,2629.55 6985.55,2630.26"/>
    </edge>
    <edge id=":11434275756_30" function="internal">
        <lane id=":11434275756_30_0" index="0" disallow="tram rail_urban rail rail_electric rail_fast ship container cable_car subway aircraft wheelchair scooter drone" speed="13.89" length="26.50" shape="7011.79,2628.30 7006.64,2629.83 6998.98,2630.46 6991.16,2630.50 6985.55,2630.26"/>
    </edge>
    <edge id=":11434275756_31" function="internal">
        <lane id=":11434275756_31_0" index="0" disallow="tram rail_urban rail rail_electric rail_fast ship container cable_car subway aircraft wheelchair scooter drone" speed="13.89" length="26.50" shape="7011.79,2628.30 7006.64,2629.83 6998.98,2630.46 6991.16,2630.50 6985.55,2630.26"/>
    </edge>
    <edge id=":11434275756_32" function="internal">