<?xml version="1.0" encoding="UTF-8"?>

<!-- generated on 2024-08-04 09:38:31 by Eclipse SUMO netconvert Version 1.20.0
<configuration xmlns:xsi="http://www.w3.org/2001/XMLSchema-instance" xsi:noNamespaceSchemaLocation="http://sumo.dlr.de/xsd/netconvertConfiguration.xsd">

    <input>
        <osm-files value="E:\finale-submission\backend\config\map.osm"/>
    </input>

    <output>
        <output-file value="E:\finale-submission\backend\config\map.net.xml"/>
    </output>

    <projection>
        <proj.utm value="true"/>
    </projection>

</configuration>
-->

<net version="1.20" junctionCornerDetail="5" limitTurnSpeed="5.50" xmlns:xsi="http://www.w3.org/2001/XMLSchema-instance" xsi:noNamespaceSchemaLocation="http://sumo.dlr.de/xsd/net_file.xsd">

    <location netOffset="-246324.01,-2554431.99" convBoundary="0.00,0.00,1439.62,395.12" origBoundary="72.523724,23.079330,72.537785,23.082873" projParameter="+proj=utm +zone=43 +ellps=WGS84 +datum=WGS84 +units=m +no_defs"/>

    <type id="highway.residential" priority="3" numLanes="1" speed="13.89" disallow="tram rail_urban rail rail_electric rail_fast ship container cable_car subway aircraft wheelchair scooter drone" oneway="0"/>
    <type id="highway.secondary" priority="11" numLanes="1" speed="27.78" disallow="tram rail_urban rail rail_electric rail_fast ship container cable_car subway aircraft wheelchair scooter drone" oneway="0"/>
    <type id="highway.service" priority="1" numLanes="1" speed="5.56" allow="pedestrian delivery bicycle" oneway="0"/>
    <type id="highway.tertiary" priority="10" numLanes="1" speed="22.22" disallow="tram rail_urban rail rail_electric rail_fast ship container cable_car subway aircraft wheelchair scooter drone" oneway="0"/>

    <edge id=":10130909194_0" function="internal">
        <lane id=":10130909194_0_0" index="0" disallow="tram rail_urban rail rail_electric rail_fast ship container cable_car subway aircraft wheelchair scooter drone" speed="6.04" length="7.87" shape="246.75,127.29 248.23,127.25 249.53,128.10 250.63,129.84 251.54,132.47"/>
    </edge>
    <edge id=":10130909194_1" function="internal">
        <lane id=":10130909194_1_0" index="0" disallow="tram rail_urban rail rail_electric rail_fast ship container cable_car subway aircraft wheelchair scooter drone" speed="3.24" length="3.20" shape="246.75,127.29 247.70,130.35"/>
    </edge>
    <edge id=":10130909194_2" function="internal">
        <lane id=":10130909194_2_0" index="0" disallow="tram rail_urban rail rail_electric rail_fast ship container cable_car subway aircraft wheelchair scooter drone" speed="3.65" length="4.67" shape="246.75,127.29 248.14,127.70 248.76,128.35 248.61,129.23 247.70,130.35"/>
    </edge>
    <edge id=":10130909194_3" function="internal">
        <lane id=":10130909194_3_0" index="0" disallow="tram rail_urban rail rail_electric rail_fast ship container cable_car subway aircraft wheelchair scooter drone" speed="6.04" length="7.87" shape="246.75,127.29 248.23,127.25 249.53,128.10 250.63,129.84 251.54,132.47"/>
    </edge>
    <edge id=":10130909194_4" function="internal">
        <lane id=":10130909194_4_0" index="0" disallow="tram rail_urban rail rail_electric rail_fast ship container cable_car subway aircraft wheelchair scooter drone" speed="3.24" length="3.20" shape="246.75,127.29 247.70,130.35"/>
    </edge>
    <edge id=":10130909194_5" function="internal">
        <lane id=":10130909194_5_0" index="0" disallow="tram rail_urban rail rail_electric rail_fast ship container cable_car subway aircraft wheelchair scooter drone" speed="3.65" length="1.64" shape="246.75,127.29 248.14,127.70 248.27,127.84"/>
    </edge>
    <edge id=":10130909194_6" function="internal">
        <lane id=":10130909194_6_0" index="0" disallow="tram rail_urban rail rail_electric rail_fast ship container cable_car subway aircraft wheelchair scooter drone" speed="3.65" length="3.04" shape="248.27,127.84 248.76,128.35 248.61,129.23 247.70,130.35"/>
    </edge>
    <edge id=":10130909195_0" function="internal">
        <lane id=":10130909195_0_0" index="0" disallow="tram rail_urban rail rail_electric rail_fast ship container cable_car subway aircraft wheelchair scooter drone" speed="22.22" length="9.37" shape="265.86,186.32 268.35,195.36"/>
    </edge>
    <edge id=":10130909195_1" function="internal">
        <lane id=":10130909195_1_0" index="0" disallow="tram rail_urban rail rail_electric rail_fast ship container cable_car subway aircraft wheelchair scooter drone" speed="6.10" length="7.74" shape="265.86,186.32 266.39,189.03 266.34,191.08 265.72,192.48 264.52,193.22"/>
    </edge>
    <edge id=":10130909195_2" function="internal">
        <lane id=":10130909195_2_0" index="0" disallow="tram rail_urban rail rail_electric rail_fast ship container cable_car subway aircraft wheelchair scooter drone" speed="6.10" length="7.74" shape="265.86,186.32 266.39,189.03 266.34,191.08 265.72,192.48 264.52,193.22"/>
    </edge>
    <edge id=":10130909195_3" function="internal">
        <lane id=":10130909195_3_0" index="0" disallow="tram rail_urban rail rail_electric rail_fast ship container cable_car subway aircraft wheelchair scooter drone" speed="6.09" length="7.74" shape="263.66,190.14 265.07,190.15 266.32,191.03 267.41,192.77 268.35,195.36"/>
    </edge>
    <edge id=":10130909195_4" function="internal">
        <lane id=":10130909195_4_0" index="0" disallow="tram rail_urban rail rail_electric rail_fast ship container cable_car subway aircraft wheelchair scooter drone" speed="3.24" length="3.20" shape="263.66,190.14 264.52,193.22"/>
    </edge>
    <edge id=":10130909195_5" function="internal">
        <lane id=":10130909195_5_0" index="0" disallow="tram rail_urban rail rail_electric rail_fast ship container cable_car subway aircraft wheelchair scooter drone" speed="3.65" length="4.67" shape="263.66,190.14 265.04,190.58 265.64,191.25 265.47,192.12 264.52,193.22"/>
    </edge>
    <edge id=":10130909195_6" function="internal">
        <lane id=":10130909195_6_0" index="0" disallow="tram rail_urban rail rail_electric rail_fast ship container cable_car subway aircraft wheelchair scooter drone" speed="6.09" length="7.74" shape="263.66,190.14 265.07,190.15 266.32,191.03 267.41,192.77 268.35,195.36"/>
    </edge>
    <edge id=":10130909195_7" function="internal">
        <lane id=":10130909195_7_0" index="0" disallow="tram rail_urban rail rail_electric rail_fast ship container cable_car subway aircraft wheelchair scooter drone" speed="3.24" length="3.20" shape="263.66,190.14 264.52,193.22"/>
    </edge>
    <edge id=":10130909195_8" function="internal">
        <lane id=":10130909195_8_0" index="0" disallow="tram rail_urban rail rail_electric rail_fast ship container cable_car subway aircraft wheelchair scooter drone" speed="3.65" length="4.67" shape="263.66,190.14 265.04,190.58 265.64,191.25 265.47,192.12 264.52,193.22"/>
    </edge>
    <edge id=":10130909196_0" function="internal">
        <lane id=":10130909196_0_0" index="0" allow="pedestrian delivery bicycle" speed="5.56" length="6.82" shape="315.70,349.14 313.83,349.91 312.53,350.40 311.21,350.81 309.26,351.34"/>
    </edge>
    <edge id=":10130909196_1" function="internal">
        <lane id=":10130909196_1_0" index="0" allow="pedestrian delivery bicycle" speed="5.56" length="6.82" shape="315.70,349.14 313.83,349.91 312.53,350.40 311.21,350.81 309.26,351.34"/>
    </edge>
    <edge id=":10130909196_2" function="internal">
        <lane id=":10130909196_2_0" index="0" allow="pedestrian delivery bicycle" speed="3.24" length="3.20" shape="315.70,349.14 314.49,346.18"/>
    </edge>
    <edge id=":10130909196_3" function="internal">
        <lane id=":10130909196_3_0" index="0" allow="pedestrian delivery bicycle" speed="3.65" length="4.67" shape="315.70,349.14 314.29,348.86 313.61,348.27 313.68,347.38 314.49,346.18"/>
    </edge>
    <edge id=":10130909196_4" function="internal">
        <lane id=":10130909196_4_0" index="0" allow="pedestrian delivery bicycle" speed="4.93" length="5.14" shape="310.54,344.27 311.13,345.57 311.98,346.33 313.10,346.53 314.49,346.18"/>
    </edge>
    <edge id=":10130909196_5" function="internal">
        <lane id=":10130909196_5_0" index="0" allow="pedestrian delivery bicycle" speed="4.93" length="5.14" shape="310.54,344.27 311.13,345.57 311.98,346.33 313.10,346.53 314.49,346.18"/>
    </edge>
    <edge id=":10130909196_6" function="internal">
        <lane id=":10130909196_6_0" index="0" allow="pedestrian delivery bicycle" speed="6.12" length="7.96" shape="310.54,344.27 311.13,347.05 311.11,349.16 310.49,350.59 309.26,351.34"/>
    </edge>
    <edge id=":10130909196_7" function="internal">
        <lane id=":10130909196_7_0" index="0" allow="pedestrian delivery bicycle" speed="6.12" length="7.96" shape="310.54,344.27 311.13,347.05 311.11,349.16 310.49,350.59 309.26,351.34"/>
    </edge>
    <edge id=":10130909196_8" function="internal">
        <lane id=":10130909196_8_0" index="0" allow="pedestrian delivery bicycle" speed="5.56" length="6.41" shape="308.43,348.25 310.26,347.75 311.51,347.36 312.73,346.90 314.49,346.18"/>
    </edge>
    <edge id=":10130909196_9" function="internal">
        <lane id=":10130909196_9_0" index="0" allow="pedestrian delivery bicycle" speed="5.56" length="6.41" shape="308.43,348.25 310.26,347.75 311.51,347.36 312.73,346.90 314.49,346.18"/>
    </edge>
    <edge id=":10130909196_10" function="internal">
        <lane id=":10130909196_10_0" index="0" allow="pedestrian delivery bicycle" speed="3.24" length="3.20" shape="308.43,348.25 309.26,351.34"/>
    </edge>
    <edge id=":10130909196_11" function="internal">
        <lane id=":10130909196_11_0" index="0" allow="pedestrian delivery bicycle" speed="3.65" length="4.67" shape="308.43,348.25 309.80,348.71 310.39,349.38 310.21,350.26 309.26,351.34"/>
    </edge>
    <edge id=":10130909196_12" function="internal">
        <lane id=":10130909196_12_0" index="0" allow="pedestrian delivery bicycle" speed="5.56" length="6.41" shape="308.43,348.25 310.26,347.75 311.51,347.36 312.73,346.90 314.49,346.18"/>
    </edge>
    <edge id=":10130909196_13" function="internal">
        <lane id=":10130909196_13_0" index="0" allow="pedestrian delivery bicycle" speed="5.56" length="6.41" shape="308.43,348.25 310.26,347.75 311.51,347.36 312.73,346.90 314.49,346.18"/>
    </edge>
    <edge id=":10130909196_14" function="internal">
        <lane id=":10130909196_14_0" index="0" allow="pedestrian delivery bicycle" speed="3.24" length="3.20" shape="308.43,348.25 309.26,351.34"/>
    </edge>
    <edge id=":10130909196_15" function="internal">
        <lane id=":10130909196_15_0" index="0" allow="pedestrian delivery bicycle" speed="3.65" length="4.67" shape="308.43,348.25 309.80,348.71 310.39,349.38 310.21,350.26 309.26,351.34"/>
    </edge>
    <edge id=":10130909196_16" function="internal">
        <lane id=":10130909196_16_0" index="0" allow="pedestrian delivery bicycle" speed="5.56" length="6.82" shape="315.70,349.14 313.83,349.91 312.53,350.40 311.21,350.81 309.26,351.34"/>
    </edge>
    <edge id=":10130909196_17" function="internal">
        <lane id=":10130909196_17_0" index="0" allow="pedestrian delivery bicycle" speed="5.56" length="6.82" shape="315.70,349.14 313.83,349.91 312.53,350.40 311.21,350.81 309.26,351.34"/>
    </edge>
    <edge id=":10130909196_18" function="internal">
        <lane id=":10130909196_18_0" index="0" allow="pedestrian delivery bicycle" speed="3.24" length="3.20" shape="315.70,349.14 314.49,346.18"/>
    </edge>
    <edge id=":10130909196_19" function="internal">
        <lane id=":10130909196_19_0" index="0" allow="pedestrian delivery bicycle" speed="3.65" length="4.67" shape="315.70,349.14 314.29,348.86 313.61,348.27 313.68,347.38 314.49,346.18"/>
    </edge>
    <edge id=":10723934584_0" function="internal">
        <lane id=":10723934584_0_0" index="0" disallow="tram rail_urban rail rail_electric rail_fast ship container cable_car subway aircraft wheelchair scooter drone" speed="3.24" length="3.20" shape="553.91,69.60 555.59,72.32"/>
    </edge>
    <edge id=":10723934584_1" function="internal">
        <lane id=":10723934584_1_0" index="0" disallow="tram rail_urban rail rail_electric rail_fast ship container cable_car subway aircraft wheelchair scooter drone" speed="3.24" length="3.20" shape="553.91,69.60 555.59,72.32"/>
    </edge>
    <edge id=":10723934585_0" function="internal">
        <lane id=":10723934585_0_0" index="0" disallow="tram rail_urban rail rail_electric rail_fast ship container cable_car subway aircraft wheelchair scooter drone" speed="3.24" length="3.20" shape="584.58,67.05 583.99,63.90"/>
    </edge>
    <edge id=":10723934585_1" function="internal">
        <lane id=":10723934585_1_0" index="0" disallow="tram rail_urban rail rail_electric rail_fast ship container cable_car subway aircraft wheelchair scooter drone" speed="3.24" length="3.20" shape="584.58,67.05 583.99,63.90"/>
    </edge>
    <edge id=":11143164960_0" function="internal">
        <lane id=":11143164960_0_0" index="0" disallow="tram rail_urban rail rail_electric rail_fast ship container cable_car subway aircraft wheelchair scooter drone" speed="6.05" length="7.83" shape="1271.13,68.86 1270.05,67.87 1269.72,66.37 1270.12,64.35 1271.26,61.82"/>
    </edge>
    <edge id=":11143164960_1" function="internal">
        <lane id=":11143164960_1_0" index="0" disallow="tram rail_urban rail rail_electric rail_fast ship container cable_car subway aircraft wheelchair scooter drone" speed="3.24" length="3.20" shape="1271.13,68.86 1272.57,66.00"/>
    </edge>
    <edge id=":11143164960_2" function="internal">
        <lane id=":11143164960_2_0" index="0" disallow="tram rail_urban rail rail_electric rail_fast ship container cable_car subway aircraft wheelchair scooter drone" speed="3.65" length="4.67" shape="1271.13,68.86 1270.42,67.60 1270.42,66.71 1271.14,66.17 1272.57,66.00"/>
    </edge>
    <edge id=":11143164960_3" function="internal">
        <lane id=":11143164960_3_0" index="0" disallow="tram rail_urban rail rail_electric rail_fast ship container cable_car subway aircraft wheelchair scooter drone" speed="6.05" length="7.83" shape="1271.13,68.86 1270.05,67.87 1269.72,66.37 1270.12,64.35 1271.26,61.82"/>
    </edge>
    <edge id=":11143164960_4" function="internal">
        <lane id=":11143164960_4_0" index="0" disallow="tram rail_urban rail rail_electric rail_fast ship container cable_car subway aircraft wheelchair scooter drone" speed="3.24" length="3.20" shape="1271.13,68.86 1272.57,66.00"/>
    </edge>
    <edge id=":11143164960_5" function="internal">
        <lane id=":11143164960_5_0" index="0" disallow="tram rail_urban rail rail_electric rail_fast ship container cable_car subway aircraft wheelchair scooter drone" speed="3.65" length="4.67" shape="1271.13,68.86 1270.42,67.60 1270.42,66.71 1271.14,66.17 1272.57,66.00"/>
    </edge>
    <edge id=":11143164960_6" function="internal">
        <lane id=":11143164960_6_0" index="0" disallow="tram rail_urban rail rail_electric rail_fast ship container cable_car subway aircraft wheelchair scooter drone" speed="27.78" length="9.44" shape="1266.87,70.17 1271.26,61.82"/>
    </edge>
    <edge id=":11143164960_7" function="internal">
        <lane id=":11143164960_7_0" index="0" disallow="tram rail_urban rail rail_electric rail_fast ship container cable_car subway aircraft wheelchair scooter drone" speed="6.11" length="7.81" shape="1266.87,70.17 1268.30,67.81 1269.72,66.33 1271.15,65.72 1272.57,66.00"/>
    </edge>
    <edge id=":11143164960_8" function="internal">
        <lane id=":11143164960_8_0" index="0" disallow="tram rail_urban rail rail_electric rail_fast ship container cable_car subway aircraft wheelchair scooter drone" speed="6.11" length="7.81" shape="1266.87,70.17 1268.30,67.81 1269.72,66.33 1271.15,65.72 1272.57,66.00"/>
    </edge>
    <edge id=":11143164961_0" function="internal">
        <lane id=":11143164961_0_0" index="0" disallow="tram rail_urban rail rail_electric rail_fast ship container cable_car subway aircraft wheelchair scooter drone" speed="8.88" length="10.31" shape="1298.16,87.23 1297.64,84.91 1296.45,82.85 1294.60,81.03 1292.09,79.47"/>
    </edge>
    <edge id=":11143164961_1" function="internal">
        <lane id=":11143164961_1_0" index="0" disallow="tram rail_urban rail rail_electric rail_fast ship container cable_car subway aircraft wheelchair scooter drone" speed="8.88" length="10.31" shape="1298.16,87.23 1297.64,84.91 1296.45,82.85 1294.60,81.03 1292.09,79.47"/>
    </edge>
    <edge id=":11143164961_2" function="internal">
        <lane id=":11143164961_2_0" index="0" disallow="tram rail_urban rail rail_electric rail_fast ship container cable_car subway aircraft wheelchair scooter drone" speed="13.89" length="13.63" shape="1298.16,87.23 1298.13,83.70 1298.62,80.47 1299.58,77.33 1300.99,74.07"/>
    </edge>
    <edge id=":11143164961_3" function="internal">
        <lane id=":11143164961_3_0" index="0" disallow="tram rail_urban rail rail_electric rail_fast ship container cable_car subway aircraft wheelchair scooter drone" speed="13.89" length="13.63" shape="1298.16,87.23 1298.13,83.70 1298.62,80.47 1299.58,77.33 1300.99,74.07"/>
    </edge>
    <edge id=":11143164961_4" function="internal">
        <lane id=":11143164961_4_0" index="0" disallow="tram rail_urban rail rail_electric rail_fast ship container cable_car subway aircraft wheelchair scooter drone" speed="3.24" length="1.65" shape="1298.16,87.23 1299.81,87.10"/>
    </edge>
    <edge id=":11143164961_5" function="internal">
        <lane id=":11143164961_5_0" index="0" disallow="tram rail_urban rail rail_electric rail_fast ship container cable_car subway aircraft wheelchair scooter drone" speed="3.65" length="1.44" shape="1298.16,87.23 1298.87,85.97"/>
    </edge>
    <edge id=":11143164961_36" function="internal">
        <lane id=":11143164961_36_0" index="0" disallow="tram rail_urban rail rail_electric rail_fast ship container cable_car subway aircraft wheelchair scooter drone" speed="3.24" length="1.55" shape="1299.81,87.10 1301.35,86.97"/>
    </edge>
    <edge id=":11143164961_37" function="internal">
        <lane id=":11143164961_37_0" index="0" disallow="tram rail_urban rail rail_electric rail_fast ship container cable_car subway aircraft wheelchair scooter drone" speed="3.65" length="3.23" shape="1298.87,85.97 1299.63,85.51 1300.46,85.84 1301.35,86.97"/>
    </edge>
    <edge id=":11143164961_6" function="internal">
        <lane id=":11143164961_6_0" index="0" disallow="tram rail_urban rail rail_electric rail_fast ship container cable_car subway aircraft wheelchair scooter drone" speed="8.88" length="10.31" shape="1298.16,87.23 1297.64,84.91 1296.45,82.85 1294.60,81.03 1292.09,79.47"/>
    </edge>
    <edge id=":11143164961_7" function="internal">
        <lane id=":11143164961_7_0" index="0" disallow="tram rail_urban rail rail_electric rail_fast ship container cable_car subway aircraft wheelchair scooter drone" speed="8.88" length="10.31" shape="1298.16,87.23 1297.64,84.91 1296.45,82.85 1294.60,81.03 1292.09,79.47"/>
    </edge>
    <edge id=":11143164961_8" function="internal">
        <lane id=":11143164961_8_0" index="0" disallow="tram rail_urban rail rail_electric rail_fast ship container cable_car subway aircraft wheelchair scooter drone" speed="13.89" length="13.63" shape="1298.16,87.23 1298.13,83.70 1298.62,80.47 1299.58,77.33 1300.99,74.07"/>
    </edge>
    <edge id=":11143164961_9" function="internal">
        <lane id=":11143164961_9_0" index="0" disallow="tram rail_urban rail rail_electric rail_fast ship container cable_car subway aircraft wheelchair scooter drone" speed="13.89" length="13.63" shape="1298.16,87.23 1298.13,83.70 1298.62,80.47 1299.58,77.33 1300.99,74.07"/>
    </edge>
    <edge id=":11143164961_10" function="internal">
        <lane id=":11143164961_10_0" index="0" disallow="tram rail_urban rail rail_electric rail_fast ship container cable_car subway aircraft wheelchair scooter drone" speed="3.24" length="3.20" shape="1298.16,87.23 1301.35,86.97"/>
    </edge>
    <edge id=":11143164961_11" function="internal">
        <lane id=":11143164961_11_0" index="0" disallow="tram rail_urban rail rail_electric rail_fast ship container cable_car subway aircraft wheelchair scooter drone" speed="3.65" length="4.67" shape="1298.16,87.23 1298.87,85.97 1299.63,85.51 1300.46,85.84 1301.35,86.97"/>
    </edge>
    <edge id=":11143164961_12" function="internal">
        <lane id=":11143164961_12_0" index="0" disallow="tram rail_urban rail rail_electric rail_fast ship container cable_car subway aircraft wheelchair scooter drone" speed="13.89" length="11.98" shape="1303.88,75.45 1302.52,78.46 1301.66,81.04 1301.28,83.71 1301.35,86.97"/>
    </edge>
    <edge id=":11143164961_13" function="internal">
        <lane id=":11143164961_13_0" index="0" disallow="tram rail_urban rail rail_electric rail_fast ship container cable_car subway aircraft wheelchair scooter drone" speed="13.89" length="11.98" shape="1303.88,75.45 1302.52,78.46 1301.66,81.04 1301.28,83.71 1301.35,86.97"/>
    </edge>
    <edge id=":11143164961_14" function="internal">
        <lane id=":11143164961_14_0" index="0" disallow="tram rail_urban rail rail_electric rail_fast ship container cable_car subway aircraft wheelchair scooter drone" speed="7.96" length="3.77" shape="1303.88,75.45 1301.78,78.59"/>
    </edge>
    <edge id=":11143164961_15" function="internal">
        <lane id=":11143164961_15_0" index="0" disallow="tram rail_urban rail rail_electric rail_fast ship container cable_car subway aircraft wheelchair scooter drone" speed="7.96" length="3.77" shape="1303.88,75.45 1301.78,78.59"/>
    </edge>
    <edge id=":11143164961_16" function="internal">
        <lane id=":11143164961_16_0" index="0" disallow="tram rail_urban rail rail_electric rail_fast ship container cable_car subway aircraft wheelchair scooter drone" speed="3.24" length="1.56" shape="1303.88,75.45 1302.47,74.78"/>
    </edge>
    <edge id=":11143164961_17" function="internal">
        <lane id=":11143164961_17_0" index="0" disallow="tram rail_urban rail rail_electric rail_fast ship container cable_car subway aircraft wheelchair scooter drone" speed="3.65" length="1.44" shape="1303.88,75.45 1302.64,76.19"/>
    </edge>
    <edge id=":11143164961_38" function="internal">
        <lane id=":11143164961_38_0" index="0" disallow="tram rail_urban rail rail_electric rail_fast ship container cable_car subway aircraft wheelchair scooter drone" speed="7.96" length="10.51" shape="1301.78,78.59 1301.70,78.72 1299.01,80.48 1295.80,80.72 1292.09,79.47"/>
    </edge>
    <edge id=":11143164961_39" function="internal">
        <lane id=":11143164961_39_0" index="0" disallow="tram rail_urban rail rail_electric rail_fast ship container cable_car subway aircraft wheelchair scooter drone" speed="7.96" length="10.51" shape="1301.78,78.59 1301.70,78.72 1299.01,80.48 1295.80,80.72 1292.09,79.47"/>
    </edge>
    <edge id=":11143164961_40" function="internal">
        <lane id=":11143164961_40_0" index="0" disallow="tram rail_urban rail rail_electric rail_fast ship container cable_car subway aircraft wheelchair scooter drone" speed="3.24" length="1.64" shape="1302.47,74.78 1300.99,74.07"/>
    </edge>
    <edge id=":11143164961_41" function="internal">
        <lane id=":11143164961_41_0" index="0" disallow="tram rail_urban rail rail_electric rail_fast ship container cable_car subway aircraft wheelchair scooter drone" speed="3.65" length="3.23" shape="1302.64,76.19 1301.75,76.21 1301.20,75.50 1300.99,74.07"/>
    </edge>
    <edge id=":11143164961_18" function="internal">
        <lane id=":11143164961_18_0" index="0" disallow="tram rail_urban rail rail_electric rail_fast ship container cable_car subway aircraft wheelchair scooter drone" speed="13.89" length="11.98" shape="1303.88,75.45 1302.52,78.46 1301.66,81.04 1301.28,83.71 1301.35,86.97"/>
    </edge>
    <edge id=":11143164961_19" function="internal">
        <lane id=":11143164961_19_0" index="0" disallow="tram rail_urban rail rail_electric rail_fast ship container cable_car subway aircraft wheelchair scooter drone" speed="13.89" length="11.98" shape="1303.88,75.45 1302.52,78.46 1301.66,81.04 1301.28,83.71 1301.35,86.97"/>
    </edge>
    <edge id=":11143164961_20" function="internal">
        <lane id=":11143164961_20_0" index="0" disallow="tram rail_urban rail rail_electric rail_fast ship container cable_car subway aircraft wheelchair scooter drone" speed="7.96" length="14.28" shape="1303.88,75.45 1301.70,78.72 1299.01,80.48 1295.80,80.72 1292.09,79.47"/>
    </edge>
    <edge id=":11143164961_21" function="internal">
        <lane id=":11143164961_21_0" index="0" disallow="tram rail_urban rail rail_electric rail_fast ship container cable_car subway aircraft wheelchair scooter drone" speed="7.96" length="14.28" shape="1303.88,75.45 1301.70,78.72 1299.01,80.48 1295.80,80.72 1292.09,79.47"/>
    </edge>
    <edge id=":11143164961_22" function="internal">
        <lane id=":11143164961_22_0" index="0" disallow="tram rail_urban rail rail_electric rail_fast ship container cable_car subway aircraft wheelchair scooter drone" speed="3.24" length="3.20" shape="1303.88,75.45 1300.99,74.07"/>
    </edge>
    <edge id=":11143164961_23" function="internal">
        <lane id=":11143164961_23_0" index="0" disallow="tram rail_urban rail rail_electric rail_fast ship container cable_car subway aircraft wheelchair scooter drone" speed="3.65" length="4.67" shape="1303.88,75.45 1302.64,76.19 1301.75,76.21 1301.20,75.50 1300.99,74.07"/>
    </edge>
    <edge id=":11143164961_24" function="internal">
        <lane id=":11143164961_24_0" index="0" disallow="tram rail_urban rail rail_electric rail_fast ship container cable_car subway aircraft wheelchair scooter drone" speed="6.46" length="9.03" shape="1293.53,76.61 1295.88,77.41 1297.91,77.25 1299.61,76.14 1300.99,74.07"/>
    </edge>
    <edge id=":11143164961_25" function="internal">
        <lane id=":11143164961_25_0" index="0" disallow="tram rail_urban rail rail_electric rail_fast ship container cable_car subway aircraft wheelchair scooter drone" speed="6.46" length="9.03" shape="1293.53,76.61 1295.88,77.41 1297.91,77.25 1299.61,76.14 1300.99,74.07"/>
    </edge>
    <edge id=":11143164961_26" function="internal">
        <lane id=":11143164961_26_0" index="0" disallow="tram rail_urban rail rail_electric rail_fast ship container cable_car subway aircraft wheelchair scooter drone" speed="10.13" length="13.59" shape="1293.53,76.61 1296.75,78.64 1299.13,81.05 1300.66,83.82 1301.35,86.97"/>
    </edge>
    <edge id=":11143164961_27" function="internal">
        <lane id=":11143164961_27_0" index="0" disallow="tram rail_urban rail rail_electric rail_fast ship container cable_car subway aircraft wheelchair scooter drone" speed="10.13" length="13.59" shape="1293.53,76.61 1296.75,78.64 1299.13,81.05 1300.66,83.82 1301.35,86.97"/>
    </edge>
    <edge id=":11143164961_28" function="internal">
        <lane id=":11143164961_28_0" index="0" disallow="tram rail_urban rail rail_electric rail_fast ship container cable_car subway aircraft wheelchair scooter drone" speed="3.24" length="3.20" shape="1293.53,76.61 1292.09,79.47"/>
    </edge>
    <edge id=":11143164961_29" function="internal">
        <lane id=":11143164961_29_0" index="0" disallow="tram rail_urban rail rail_electric rail_fast ship container cable_car subway aircraft wheelchair scooter drone" speed="3.65" length="4.67" shape="1293.53,76.61 1294.24,77.87 1294.24,78.76 1293.52,79.30 1292.09,79.47"/>
    </edge>
    <edge id=":11143164961_30" function="internal">
        <lane id=":11143164961_30_0" index="0" disallow="tram rail_urban rail rail_electric rail_fast ship container cable_car subway aircraft wheelchair scooter drone" speed="6.46" length="9.03" shape="1293.53,76.61 1295.88,77.41 1297.91,77.25 1299.61,76.14 1300.99,74.07"/>
    </edge>
    <edge id=":11143164961_31" function="internal">
        <lane id=":11143164961_31_0" index="0" disallow="tram rail_urban rail rail_electric rail_fast ship container cable_car subway aircraft wheelchair scooter drone" speed="6.46" length="9.03" shape="1293.53,76.61 1295.88,77.41 1297.91,77.25 1299.61,76.14 1300.99,74.07"/>
    </edge>
    <edge id=":11143164961_32" function="internal">
        <lane id=":11143164961_32_0" index="0" disallow="tram rail_urban rail rail_electric rail_fast ship container cable_car subway aircraft wheelchair scooter drone" speed="10.13" length="13.59" shape="1293.53,76.61 1296.75,78.64 1299.13,81.05 1300.66,83.82 1301.35,86.97"/>
    </edge>
    <edge id=":11143164961_33" function="internal">
        <lane id=":11143164961_33_0" index="0" disallow="tram rail_urban rail rail_electric rail_fast ship container cable_car subway aircraft wheelchair scooter drone" speed="10.13" length="13.59" shape="1293.53,76.61 1296.75,78.64 1299.13,81.05 1300.66,83.82 1301.35,86.97"/>
    </edge>
    <edge id=":11143164961_34" function="internal">
        <lane id=":11143164961_34_0" index="0" disallow="tram rail_urban rail rail_electric rail_fast ship container cable_car subway aircraft wheelchair scooter drone" speed="3.24" length="3.20" shape="1293.53,76.61 1292.09,79.47"/>
    </edge>
    <edge id=":11143164961_35" function="internal">
        <lane id=":11143164961_35_0" index="0" disallow="tram rail_urban rail rail_electric rail_fast ship container cable_car subway aircraft wheelchair scooter drone" speed="3.65" length="4.67" shape="1293.53,76.61 1294.24,77.87 1294.24,78.76 1293.52,79.30 1292.09,79.47"/>
    </edge>
    <edge id=":11143164962_0" function="internal">
        <lane id=":11143164962_0_0" index="0" disallow="tram rail_urban rail rail_electric rail_fast ship container cable_car subway aircraft wheelchair scooter drone" speed="3.24" length="3.20" shape="1307.95,59.52 1310.84,60.90"/>
    </edge>
    <edge id=":11143164962_1" function="internal">