<?xml version="1.0" encoding="UTF-8"?>

<!-- generated on 2024-08-05 11:20:58 by Eclipse SUMO activitygen Version 1.20.0
<configuration xmlns:xsi="http://www.w3.org/2001/XMLSchema-instance" xsi:noNamespaceSchemaLocation="http://sumo.dlr.de/xsd/activitygenConfiguration.xsd">

    <input>
        <net-file value="map.net.xml"/>
        <stat-file value="stats.xml"/>
    </input>

    <output>
        <output-file value="routes.rou.xml"/>
    </output>

</configuration>
-->

<routes xmlns:xsi="http://www.w3.org/2001/XMLSchema-instance" xsi:noNamespaceSchemaLocation="http://sumo.dlr.de/xsd/routes_file.xsd">
    <vType id="default" vClass="passenger" color="red"/>
    <vType id="random" vClass="passenger" color="blue"/>
    <vType id="bus" vClass="bus" color="green"/>

    <trip id="randUni2909:1" type="random" depart="2.00" departPos="77.89" arrivalPos="11.29" arrivalSpeed="0.00" from="-110" to="305"/>
    <trip id="randUni8483:1" type="random" depart="16.00" departPos="1107.55" arrivalPos="710.46" arrivalSpeed="0.00" from="-42" to="61"/>
    <trip id="randUni2917:1" type="random" depart="40.00" departPos="1213.84" arrivalPos="9.04" arrivalSpeed="0.00" from="-40" to="-312"/>
    <trip id="randUni4884:1" type="random" depart="54.00" departPos="65.97" arrivalPos="8.38" arrivalSpeed="0.00" from="-21" to="141"/>
    <trip id="randUni2733:1" type="random" depart="62.00" departPos="4.93" arrivalPos="17.44" arrivalSpeed="0.00" from="180" to="310"/>
    <trip id="randUni5336:1" type="random" depart="80.00" departPos="67.72" arrivalPos="19.57" arrivalSpeed="0.00" from="-256" to="268"/>
    <trip id="randUni3821:1" type="random" depart="93.00" departPos="49.91" arrivalPos="1.71" arrivalSpeed="0.00" from="-358" to="185"/>
    <trip id="randUni8600:1" type="random" depart="98.00" departPos="5.30" arrivalPos="16.62" arrivalSpeed="0.00" from="6" to="241"/>
    <trip id="randUni753:1" type="random" depart="103.00" departPos="1.59" arrivalPos="85.13" arrivalSpeed="0.00" from="354" to="-327"/>
    <trip id="randUni9183:1" type="random" depart="113.00" departPos="12.16" arrivalPos="1.14" arrivalSpeed="0.00" from="-225" to="-179"/>
    <trip id="randUni6127:1" type="random" depart="172.00" departPos="22.77" arrivalPos="0.19" arrivalSpeed="0.00" from="-155" to="-163"/>
    <trip id="randUni409:1" type="random" depart="178.00" departPos="9.39" arrivalPos="118.06" arrivalSpeed="0.00" from="167" to="4"/>
    <trip id="randUni3439:1" type="random" depart="209.00" departPos="1557.77" arrivalPos="0.05" arrivalSpeed="0.00" from="-34" to="-244"/>
    <trip id="randUni6153:1" type="random" depart="220.00" departPos="296.87" arrivalPos="835.44" arrivalSpeed="0.00" from="-111" to="-69"/>
    <trip id="randUni7350:1" type="random" depart="276.00" departPos="18.74" arrivalPos="18.65" arrivalSpeed="0.00" from="311" to="-207"/>
    <trip id="randUni3015:1" type="random" depart="301.00" departPos="203.62" arrivalPos="17.28" arrivalSpeed="0.00" from="-51" to="273"/>
    <trip id="randUni2646:1" type="random" depart="310.00" departPos="205.22" arrivalPos="55.29" arrivalSpeed="0.00" from="-112" to="-373"/>
    <trip id="randUni2323:1" type="random" depart="325.00" departPos="132.60" arrivalPos="12.28" arrivalSpeed="0.00" from="112" to="-280"/>
    <trip id="randUni4795:1" type="random" depart="356.00" departPos="12.97" arrivalPos="4.93" arrivalSpeed="0.00" from="210" to="216"/>
    <trip id="randUni8335:1" type="random" depart="372.00" departPos="53.37" arrivalPos="249.74" arrivalSpeed="0.00" from="-143" to="43"/>
    <trip id="randUni3668:1" type="random" depart="374.00" departPos="136.20" arrivalPos="20.58" arrivalSpeed="0.00" from="72" to="-255"/>
    <trip id="randUni9357:1" type="random" depart="377.00" departPos="4.81" arrivalPos="68.59" arrivalSpeed="0.00" from="-316" to="-38"/>
    <trip id="randUni3598:1" type="random" depart="403.00" departPos="7.93" arrivalPos="1258.15" arrivalSpeed="0.00" from="-267" to="-51"/>
    <trip id="randUni6454:1" type="random" depart="435.00" departPos="23.07" arrivalPos="756.79" arrivalSpeed="0.00" from="357" to="85"/>
    <trip id="randUni2932:1" type="random" depart="436.00" departPos="0.33" arrivalPos="39.16" arrivalSpeed="0.00" from="179" to="-368"/>
    <trip id="randUni1934:1" type="random" depart="450.00" departPos="154.44" arrivalPos="42.82" arrivalSpeed="0.00" from="-58" to="368"/>
    <trip id="randUni2324:1" type="random" depart="465.00" departPos="114.83" arrivalPos="12.29" arrivalSpeed="0.00" from="-78" to="262"/>
    <trip id="randUni6790:1" type="random" depart="494.00" departPos="6.98" arrivalPos="23.94" arrivalSpeed="0.00" from="326" to="5"/>
    <trip id="randUni8578:1" type="random" depart="511.00" departPos="1.29" arrivalPos="15.08" arrivalSpeed="0.00" from="-330" to="353"/>
    <trip id="randUni7408:1" type="random" depart="557.00" departPos="2201.96" arrivalPos="89.48" arrivalSpeed="0.00" from="60" to="-274"/>
    <trip id="randUni4682:1" type="random" depart="591.00" departPos="63.03" arrivalPos="21.46" arrivalSpeed="0.00" from="-382" to="197"/>
    <trip id="randUni6455:1" type="random" depart="613.00" departPos="0.15" arrivalPos="0.20" arrivalSpeed="0.00" from="173" to="259"/>
    <trip id="randUni1760:1" type="random" depart="623.00" departPos="818.01" arrivalPos="5.87" arrivalSpeed="0.00" from="-76" to="260"/>
    <trip id="randUni294:1" type="random" depart="631.00" departPos="172.33" arrivalPos="119.73" arrivalSpeed="0.00" from="335" to="-31"/>
    <trip id="randUni2102:1" type="random" depart="634.00" departPos="83.06" arrivalPos="1.86" arrivalSpeed="0.00" from="281" to="-212"/>
    <trip id="randUni333:1" type="random" depart="648.00" departPos="420.22" arrivalPos="1921.42" arrivalSpeed="0.00" from="-22" to="40"/>
    <trip id="randUni8781:1" type="random" depart="649.00" departPos="197.41" arrivalPos="25.28" arrivalSpeed="0.00" from="372" to="-273"/>
    <trip id="randUni8826:1" type="random" depart="655.00" departPos="6.14" arrivalPos="91.93" arrivalSpeed="0.00" from="255" to="-277"/>
    <trip id="randUni2433:1" type="random" depart="669.00" departPos="68.75" arrivalPos="328.16" arrivalSpeed="0.00" from="328" to="4"/>
    <trip id="randUni8620:1" type="random" depart="669.00" departPos="21.56" arrivalPos="536.79" arrivalSpeed="0.00" from="-67" to="-101"/>
    <trip id="randUni8972:1" type="random" depart="672.00" departPos="27.33" arrivalPos="1687.88" arrivalSpeed="0.00" from="-221" to="55"/>
    <trip id="randUni5582:1" type="random" depart="725.00" departPos="0.01" arrivalPos="99.35" arrivalSpeed="0.00" from="362" to="-5"/>
    <trip id="randUni4130:1" type="random" depart="730.00" departPos="519.82" arrivalPos="6.75" arrivalSpeed="0.00" from="-121" to="381"/>
    <trip id="randUni9341:1" type="random" depart="732.00" departPos="259.47" arrivalPos="45.70" arrivalSpeed="0.00" from="118" to="-187"/>
    <trip id="randUni7904:1" type="random" depart="744.00" departPos="29.03" arrivalPos="8.37" arrivalSpeed="0.00" from="156" to="-341"/>
    <trip id="randUni9426:1" type="random" depart="754.00" departPos="598.35" arrivalPos="5.68" arrivalSpeed="0.00" from="102" to="-185"/>
    <trip id="randUni5597:1" type="random" depart="768.00" departPos="1011.72" arrivalPos="277.52" arrivalSpeed="0.00" from="99" to="-63"/>
    <trip id="randUni8509:1" type="random" depart="789.00" departPos="49.46" arrivalPos="335.74" arrivalSpeed="0.00" from="-136" to="-23"/>
    <trip id="randUni5972:1" type="random" depart="790.00" departPos="0.50" arrivalPos="391.18" arrivalSpeed="0.00" from="303" to="19"/>
    <trip id="randUni3046:1" type="random" depart="800.00" departPos="74.95" arrivalPos="0.10" arrivalSpeed="0.00" from="21" to="309"/>
    <trip id="randUni8784:1" type="random" depart="856.00" departPos="342.76" arrivalPos="35.16" arrivalSpeed="0.00" from="33" to="-320"/>
    <trip id="randUni2123:1" type="random" depart="923.00" departPos="25.52" arrivalPos="19.40" arrivalSpeed="0.00" from="203" to="220"/>
    <trip id="randUni9276:1" type="random" depart="953.00" departPos="24.62" arrivalPos="34.51" arrivalSpeed="0.00" from="-78" to="-349"/>
    <trip id="randUni3416:1" type="random" depart="962.00" departPos="24.69" arrivalPos="1640.38" arrivalSpeed="0.00" from="322" to="-123"/>
    <trip id="randUni5668:1" type="random" depart="962.00" departPos="44.17" arrivalPos="121.37" arrivalSpeed="0.00" from="-339" to="-67"/>
    <trip id="randUni4389:1" type="random" depart="985.00" departPos="0.87" arrivalPos="35.23" arrivalSpeed="0.00" from="152" to="-254"/>
    <trip id="randUni587:1" type="random" depart="1016.00" departPos="196.39" arrivalPos="63.08" arrivalSpeed="0.00" from="-333" to="345"/>
    <trip id="randUni8409:1" type="random" depart="1025.00" departPos="7.10" arrivalPos="1717.69" arrivalSpeed="0.00" from="-280" to="117"/>
    <trip id="randUni6953:1" type="random" depart="1026.00" departPos="269.25" arrivalPos="68.17" arrivalSpeed="0.00" from="-1" to="-65"/>
    <trip id="randUni7284:1" type="random" depart="1056.00" departPos="16.64" arrivalPos="390.80" arrivalSpeed="0.00" from="-307" to="-49"/>
    <trip id="randUni4467:1" type="random" depart="1064.00" departPos="100.63" arrivalPos="13.75" arrivalSpeed="0.00" from="41" to="317"/>
    <trip id="randUni8308:1" type="random" depart="1077.00" departPos="125.83" arrivalPos="21.57" arrivalSpeed="0.00" from="94" to="158"/>
    <trip id="randUni2287:1" type="random" depart="1084.00" departPos="1650.22" arrivalPos="7.45" arrivalSpeed="0.00" from="65" to="-217"/>
    <trip id="randUni5148:1" type="random" depart="1118.00" departPos="111.72" arrivalPos="527.65" arrivalSpeed="0.00" from="-187" to="-11"/>
    <trip id="randUni6474:1" type="random" depart="1123.00" departPos="533.23" arrivalPos="30.10" arrivalSpeed="0.00" from="-4" to="-367"/>
    <trip id="randUni1504:1" type="random" depart="1131.00" departPos="1002.79" arrivalPos="403.59" arrivalSpeed="0.00" from="75" to="25"/>
    <trip id="randUni6706:1" type="random" depart="1148.00" departPos="65.52" arrivalPos="105.29" arrivalSpeed="0.00" from="19" to="-327"/>
    <trip id="randUni7423:1" type="random" depart="1157.00" departPos="26.71" arrivalPos="9.26" arrivalSpeed="0.00" from="-268" to="176"/>
    <trip id="randUni4118:1" type="random" depart="1162.00" departPos="606.52" arrivalPos="254.76" arrivalSpeed="0.00" from="370" to="-47"/>
    <trip id="randUni4992:1" type="random" depart="1233.00" departPos="58.89" arrivalPos="14.56" arrivalSpeed="0.00" from="-129" to="213"/>
    <trip id="randUni4722:1" type="random" depart="1238.00" departPos="3.04" arrivalPos="669.34" arrivalSpeed="0.00" from="291" to="44"/>
    <trip id="randUni8872:1" type="random" depart="1246.00" departPos="92.55" arrivalPos="409.98" arrivalSpeed="0.00" from="64" to="-120"/>
    <trip id="randUni9102:1" type="random" depart="1255.00" departPos="112.24" arrivalPos="1636.50" arrivalSpeed="0.00" from="-48" to="59"/>
    <trip id="randUni5078:1" type="random" depart="1256.00" departPos="186.89" arrivalPos="24.60" arrivalSpeed="0.00" from="106" to="-229"/>
    <trip id="randUni6130:1" type="random" depart="1272.00" departPos="164.60" arrivalPos="61.29" arrivalSpeed="0.00" from="-56" to="-52"/>
    <trip id="randUni6457:1" type="random" depart="1326.00" departPos="28.56" arrivalPos="7.50" arrivalSpeed="0.00" from="157" to="343"/>
    <trip id="randUni3045:1" type="random" depart="1328.00" departPos="924.18" arrivalPos="0.88" arrivalSpeed="0.00" from="-64" to="-355"/>
    <trip id="randUni1701:1" type="random" depart="1344.00" departPos="56.20" arrivalPos="35.25" arrivalSpeed="0.00" from="175" to="-155"/>
    <trip id="randUni3530:1" type="random" depart="1395.00" departPos="3.97" arrivalPos="3.26" arrivalSpeed="0.00" from="-305" to="-252"/>
    <trip id="randUni6441:1" type="random" depart="1419.00" departPos="1.21" arrivalPos="6.23" arrivalSpeed="0.00" from="200" to="6"/>
    <trip id="randUni1402:1" type="random" depart="1440.00" departPos="821.91" arrivalPos="5.28" arrivalSpeed="0.00" from="-68" to="-170"/>
    <trip id="randUni3658:1" type="random" depart="1442.00" departPos="1.93" arrivalPos="47.03" arrivalSpeed="0.00" from="363" to="332"/>
    <trip id="randUni2259:1" type="random" depart="1443.00" departPos="159.54" arrivalPos="1631.81" arrivalSpeed="0.00" from="313" to="83"/>
    <trip id="randUni6359:1" type="random" depart="1446.00" departPos="12.53" arrivalPos="8.43" arrivalSpeed="0.00" from="-304" to="-169"/>
    <trip id="randUni5811:1" type="random" depart="1456.00" departPos="18.37" arrivalPos="0.14" arrivalSpeed="0.00" from="342" to="-218"/>
    <trip id="randUni5922:1" type="random" depart="1481.00" departPos="273.89" arrivalPos="2.29" arrivalSpeed="0.00" from="113" to="-180"/>
    <trip id="randUni4359:1" type="random" depart="1488.00" departPos="140.49" arrivalPos="51.48" arrivalSpeed="0.00" from="-11" to="245"/>
    <trip id="randUni6900:1" type="random" depart="1497.00" departPos="1495.98" arrivalPos="7.42" arrivalSpeed="0.00" from="-115" to="358"/>
    <trip id="randUni739:1" type="random" depart="1510.00" departPos="168.12" arrivalPos="31.72" arrivalSpeed="0.00" from="298" to="-157"/>
    <trip id="randUni4332:1" type="random" depart="1541.00" departPos="2.14" arrivalPos="22.43" arrivalSpeed="0.00" from="134" to="-146"/>
    <trip id="randUni4067:1" type="random" depart="1556.00" departPos="18.34" arrivalPos="13.87" arrivalSpeed="0.00" from="354" to="343"/>
    <trip id="randUni9733:1" type="random" depart="1569.00" departPos="1.24" arrivalPos="0.35" arrivalSpeed="0.00" from="-185" to="-202"/>
    <trip id="randUni8882:1" type="random" depart="1571.00" departPos="13.11" arrivalPos="182.91" arrivalSpeed="0.00" from="362" to="72"/>
    <trip id="randUni3275:1" type="random" depart="1573.00" departPos="8.42" arrivalPos="14.86" arrivalSpeed="0.00" from="-277" to="-197"/>
    <trip id="randUni1926:1" type="random" depart="1582.00" departPos="30.98" arrivalPos="0.20" arrivalSpeed="0.00" from="-108" to="-46"/>
    <trip id="randUni2284:1" type="random" depart="1599.00" departPos="178.14" arrivalPos="972.30" arrivalSpeed="0.00" from="291" to="-36"/>
    <trip id="randUni4651:1" type="random" depart="1617.00" departPos="375.85" arrivalPos="26.94" arrivalSpeed="0.00" from="-100" to="-195"/>
    <trip id="randUni1625:1" type="random" depart="1634.00" departPos="5.94" arrivalPos="1.33" arrivalSpeed="0.00" from="-315" to="139"/>
    <trip id="randUni4552:1" type="random" depart="1643.00" departPos="152.96" arrivalPos="121.49" arrivalSpeed="0.00" from="-58" to="256"/>
    <trip id="randUni2194:1" type="random" depart="1647.00" departPos="6.74" arrivalPos="6.65" arrivalSpeed="0.00" from="-310" to="-178"/>
    <trip id="randUni6962:1" type="random" depart="1673.00" departPos="2.17" arrivalPos="108.08" arrivalSpeed="0.00" from="-244" to="17"/>
    <trip id="randUni1276:1" type="random" depart="1685.00" departPos="31.18" arrivalPos="25.23" arrivalSpeed="0.00" from="-322" to="246"/>
    <trip id="randUni87:1" type="random" depart="1688.00" departPos="2222.01" arrivalPos="31.34" arrivalSpeed="0.00" from="-61" to="231"/>
    <trip id="randUni1946:1" type="random" depart="1689.00" departPos="23.37" arrivalPos="25.65" arrivalSpeed="0.00" from="148" to="113"/>
    <trip id="randUni3572:1" type="random" depart="1695.00" departPos="202.72" arrivalPos="13.76" arrivalSpeed="0.00" from="12" to="-346"/>
    <trip id="randUni3877:1" type="random" depart="1708.00" departPos="795.57" arrivalPos="12.05" arrivalSpeed="0.00" from="-1" to="-276"/>
    <trip id="randUni5853:1" type="random" depart="1734.00" departPos="139.72" arrivalPos="464.80" arrivalSpeed="0.00" from="-41" to="12"/>
    <trip id="randUni3147:1" type="random" depart="1759.00" departPos="107.79" arrivalPos="1.28" arrivalSpeed="0.00" from="383" to="-244"/>
    <trip id="randUni4146:1" type="random" depart="1783.00" departPos="12.29" arrivalPos="519.61" arrivalSpeed="0.00" from="-246" to="-72"/>
    <trip id="randUni9400:1" type="random" depart="1784.00" departPos="467.69" arrivalPos="986.60" arrivalSpeed="0.00" from="118" to="64"/>
    <trip id="randUni5444:1" type="random" depart="1797.00" departPos="179.30" arrivalPos="14.70" arrivalSpeed="0.00" from="291" to="-304"/>
    <trip id="randUni7307:1" type="random" depart="1803.00" departPos="4.19" arrivalPos="12.06" arrivalSpeed="0.00" from="337" to="-210"/>
    <trip id="randUni1789:1" type="random" depart="1828.00" departPos="2.31" arrivalPos="95.88" arrivalSpeed="0.00" from="-199" to="-248"/>
    <trip id="randUni3055:1" type="random" depart="1841.00" departPos="25.79" arrivalPos="25.15" arrivalSpeed="0.00" from="-213" to="-156"/>
    <trip id="randUni1350:1" type="random" depart="1902.00" departPos="26.69" arrivalPos="507.81" arrivalSpeed="0.00" from="-353" to="7"/>
    <trip id="randUni2531:1" type="random" depart="1941.00" departPos="16.73" arrivalPos="0.00" arrivalSpeed="0.00" from="17" to="-318"/>
    <trip id="randUni1117:1" type="random" depart="1973.00" departPos="467.51" arrivalPos="17.34" arrivalSpeed="0.00" from="-87" to="-246"/>
    <trip id="randUni6383:1" type="random" depart="1979.00" departPos="0.02" arrivalPos="0.12" arrivalSpeed="0.00" from="173" to="334"/>
    <trip id="randUni5721:1" type="random" depart="1986.00" departPos="111.75" arrivalPos="4.94" arrivalSpeed="0.00" from="-333" to="-343"/>
    <trip id="randUni8445:1" type="random" depart="2000.00" departPos="100.08" arrivalPos="19.40" arrivalSpeed="0.00" from="241" to="-345"/>
    <trip id="randUni9406:1" type="random" depart="2001.00" departPos="22.85" arrivalPos="240.17" arrivalSpeed="0.00" from="-361" to="300"/>
    <trip id="randUni7740:1" type="random" depart="2002.00" departPos="835.96" arrivalPos="16.13" arrivalSpeed="0.00" from="-40" to="-352"/>
    <trip id="randUni55:1" type="random" depart="2009.00" departPos="23.59" arrivalPos="22.13" arrivalSpeed="0.00" from="342" to="361"/>
    <trip id="randUni5639:1" type="random" depart="2023.00" departPos="48.28" arrivalPos="1398.37" arrivalSpeed="0.00" from="216" to="-117"/>
    <trip id="randUni2706:1" type="random" depart="2038.00" departPos="16.90" arrivalPos="4.78" arrivalSpeed="0.00" from="61" to="152"/>
    <trip id="randUni6013:1" type="random" depart="2041.00" departPos="19.39" arrivalPos="438.56" arrivalSpeed="0.00" from="-381" to="93"/>
    <trip id="randUni6831:1" type="random" depart="2068.00" departPos="9.72" arrivalPos="52.29" arrivalSpeed="0.00" from="273" to="187"/>
    <trip id="randUni5247:1" type="random" depart="2075.00" departPos="15.97" arrivalPos="21.65" arrivalSpeed="0.00" from="-255" to="322"/>
    <trip id="randUni8241:1" type="random" depart="2077.00" departPos="0.28" arrivalPos="0.26" arrivalSpeed="0.00" from="351" to="294"/>
    <trip id="randUni2364:1" type="random" depart="2106.00" departPos="1889.67" arrivalPos="113.44" arrivalSpeed="0.00" from="74" to="78"/>
    <trip id="randUni6055:1" type="random" depart="2137.00" departPos="9.41" arrivalPos="18.72" arrivalSpeed="0.00" from="-289" to="190"/>
    <trip id="randUni6007:1" type="random" depart="2144.00" departPos="1156.83" arrivalPos="0.05" arrivalSpeed="0.00" from="-123" to="259"/>
    <trip id="randUni8288:1" type="random" depart="2176.00" departPos="4.11" arrivalPos="80.77" arrivalSpeed="0.00" from="147" to="-274"/>
    <trip id="randUni9651:1" type="random" depart="2190.00" departPos="129.94" arrivalPos="5.43" arrivalSpeed="0.00" from="41" to="-334"/>
    <trip id="randUni3075:1" type="random" depart="2214.00" departPos="2002.28" arrivalPos="1.15" arrivalSpeed="0.00" from="16" to="-305"/>
    <trip id="randUni246:1" type="random" depart="2231.00" departPos="24.35" arrivalPos="0.07" arrivalSpeed="0.00" from="-192" to="-259"/>
    <trip id="randUni1531:1" type="random" depart="2284.00" departPos="601.22" arrivalPos="40.13" arrivalSpeed="0.00" from="-36" to="368"/>
    <trip id="randUni5561:1" type="random" depart="2320.00" departPos="0.04" arrivalPos="6.75" arrivalSpeed="0.00" from="309" to="267"/>
    <trip id="randUni729:1" type="random" depart="2360.00" departPos="2.51" arrivalPos="60.11" arrivalSpeed="0.00" from="-362" to="-5"/>
    <trip id="randUni9232:1" type="random" depart="2368.00" departPos="7.30" arrivalPos="33.03" arrivalSpeed="0.00" from="-170" to="-256"/>
    <trip id="randUni2288:1" type="random" depart="2392.00" departPos="106.63" arrivalPos="6.40" arrivalSpeed="0.00" from="-328" to="-355"/>
    <trip id="randUni4480:1" type="random" depart="2404.00" departPos="19.51" arrivalPos="10.94" arrivalSpeed="0.00" from="-207" to="302"/>
    <trip id="randUni6188:1" type="random" depart="2411.00" departPos="4.55" arrivalPos="12.89" arrivalSpeed="0.00" from="-356" to="172"/>
    <trip id="randUni2982:1" type="random" depart="2416.00" departPos="107.13" arrivalPos="41.69" arrivalSpeed="0.00" from="-325" to="274"/>
    <trip id="randUni7099:1" type="random" depart="2416.00" departPos="16.00" arrivalPos="23.70" arrivalSpeed="0.00" from="234" to="154"/>
    <trip id="randUni4376:1" type="random" depart="2462.00" departPos="26.57" arrivalPos="1170.80" arrivalSpeed="0.00" from="198" to="59"/>
    <trip id="randUni1128:1" type="random" depart="2566.00" departPos="147.21" arrivalPos="1.08" arrivalSpeed="0.00" from="-55" to="-369"/>
    <trip id="randUni7609:1" type="random" depart="2578.00" departPos="28.46" arrivalPos="98.64" arrivalSpeed="0.00" from="254" to="-277"/>
    <trip id="randUni5352:1" type="random" depart="2593.00" departPos="33.72" arrivalPos="2.42" arrivalSpeed="0.00" from="-138" to="-224"/>
    <trip id="randUni9711:1" type="random" depart="2613.00" departPos="30.03" arrivalPos="122.20" arrivalSpeed="0.00" from="-345" to="67"/>
    <trip id="randUni644:1" type="random" depart="2635.00" departPos="17.02" arrivalPos="11.17" arrivalSpeed="0.00" from="244" to="-192"/>
    <trip id="randUni7996:1" type="random" depart="2635.00" departPos="9.44" arrivalPos="1119.10" arrivalSpeed="0.00" from="323" to="-123"/>
    <trip id="randUni5319:1" type="random" depart="2665.00" departPos="36.88" arrivalPos="15.96" arrivalSpeed="0.00" from="-134" to="-283"/>
    <trip id="randUni7849:1" type="random" depart="2680.00" departPos="10.94" arrivalPos="1310.84" arrivalSpeed="0.00" from="306" to="-81"/>
    <trip id="randUni3169:1" type="random" depart="2682.00" departPos="169.46" arrivalPos="49.60" arrivalSpeed="0.00" from="-117" to="-367"/>
    <trip id="randUni1175:1" type="random" depart="2747.00" departPos="55.25" arrivalPos="1.41" arrivalSpeed="0.00" from="383" to="-151"/>
    <trip id="randUni1856:1" type="random" depart="2781.00" departPos="197.65" arrivalPos="29.87" arrivalSpeed="0.00" from="-300" to="358"/>
    <trip id="randUni4362:1" type="random" depart="2785.00" departPos="31.89" arrivalPos="1918.15" arrivalSpeed="0.00" from="-190" to="-382"/>
    <trip id="randUni8237:1" type="random" depart="2797.00" departPos="39.76" arrivalPos="7.02" arrivalSpeed="0.00" from="-235" to="-288"/>
    <trip id="randUni8523:1" type="random" depart="2844.00" departPos="22.14" arrivalPos="30.43" arrivalSpeed="0.00" from="139" to="326"/>
    <trip id="randUni1725:1" type="random" depart="2870.00" departPos="226.17" arrivalPos="1009.99" arrivalSpeed="0.00" from="-65" to="-115"/>
    <trip id="randUni6945:1" type="random" depart="2889.00" departPos="152.96" arrivalPos="661.06" arrivalSpeed="0.00" from="372" to="-39"/>
    <trip id="randUni3472:1" type="random" depart="2900.00" departPos="26.21" arrivalPos="27.31" arrivalSpeed="0.00" from="-135" to="183"/>
    <trip id="randUni9658:1" type="random" depart="2913.00" departPos="45.79" arrivalPos="328.67" arrivalSpeed="0.00" from="-126" to="84"/>
    <trip id="randUni2657:1" type="random" depart="2949.00" departPos="50.95" arrivalPos="62.41" arrivalSpeed="0.00" from="-236" to="17"/>
    <trip id="randUni8963:1" type="random" depart="2966.00" departPos="34.49" arrivalPos="277.98" arrivalSpeed="0.00" from="-149" to="114"/>
    <trip id="randUni8058:1" type="random" depart="2983.00" departPos="1380.92" arrivalPos="88.56" arrivalSpeed="0.00" from="128" to="-104"/>
    <trip id="randUni3841:1" type="random" depart="2991.00" departPos="180.38" arrivalPos="4.39" arrivalSpeed="0.00" from="15" to="-291"/>
    <trip id="randUni5753:1" type="random" depart="3000.00" departPos="66.66" arrivalPos="55.82" arrivalSpeed="0.00" from="43" to="-345"/>
    <trip id="randUni5861:1" type="random" depart="3004.00" departPos="4.31" arrivalPos="1196.62" arrivalSpeed="0.00" from="350" to="74"/>
    <trip id="randUni8367:1" type="random" depart="3016.00" departPos="2186.12" arrivalPos="4.65" arrivalSpeed="0.00" from="125" to="345"/>
    <trip id="randUni1950:1" type="random" depart="3022.00" departPos="19.16" arrivalPos="20.80" arrivalSpeed="0.00" from="-254" to="345"/>
    <trip id="randUni9590:1" type="random" depart="3075.00" departPos="856.02" arrivalPos="110.26" arrivalSpeed="0.00" from="-70" to="-263"/>
    <trip id="randUni6738:1" type="random" depart="3105.00" departPos="27.66" arrivalPos="4.38" arrivalSpeed="0.00" from="-243" to="-337"/>
    <trip id="randUni1287:1" type="random" depart="3112.00" departPos="39.35" arrivalPos="1010.16" arrivalSpeed="0.00" from="282" to="88"/>
    <trip id="randUni9521:1" type="random" depart="3125.00" departPos="600.00" arrivalPos="36.34" arrivalSpeed="0.00" from="-119" to="-155"/>
    <trip id="randUni6023:1" type="random" depart="3135.00" departPos="14.56" arrivalPos="6.39" arrivalSpeed="0.00" from="-280" to="-321"/>
    <trip id="randUni338:1" type="random" depart="3136.00" departPos="33.20" arrivalPos="289.88" arrivalSpeed="0.00" from="317" to="-18"/>
    <trip id="randUni2082:1" type="random" depart="3138.00" departPos="91.70" arrivalPos="565.83" arrivalSpeed="0.00" from="-339" to="99"/>
    <trip id="randUni2332:1" type="random" depart="3146.00" departPos="366.87" arrivalPos="17.30" arrivalSpeed="0.00" from="134" to="270"/>
    <trip id="randUni1684:1" type="random" depart="3149.00" departPos="1687.16" arrivalPos="4.15" arrivalSpeed="0.00" from="61" to="-298"/>
    <trip id="randUni6435:1" type="random" depart="3172.00" departPos="29.78" arrivalPos="0.06" arrivalSpeed="0.00" from="-326" to="-163"/>
    <trip id="randUni4222:1" type="random" depart="3173.00" departPos="2.46" arrivalPos="10.73" arrivalSpeed="0.00" from="267" to="-271"/>
    <trip id="randUni886:1" type="random" depart="3190.00" departPos="11.38" arrivalPos="47.59" arrivalSpeed="0.00" from="-280" to="-256"/>
    <trip id="randUni3556:1" type="random" depart="3234.00" departPos="24.88" arrivalPos="27.29" arrivalSpeed="0.00" from="311" to="-149"/>
    <trip id="randUni7780:1" type="random" depart="3251.00" departPos="17.87" arrivalPos="846.10" arrivalSpeed="0.00" from="355" to="-107"/>
    <trip id="randUni7806:1" type="random" depart="3253.00" departPos="7.09" arrivalPos="139.99" arrivalSpeed="0.00" from="-265" to="-106"/>
    <trip id="randUni1339:1" type="random" depart="3255.00" departPos="98.90" arrivalPos="6.63" arrivalSpeed="0.00" from="18" to="363"/>
    <trip id="randUni7972:1" type="random" depart="3260.00" departPos="860.61" arrivalPos="24.43" arrivalSpeed="0.00" from="52" to="-261"/>
    <trip id="randUni4108:1" type="random" depart="3290.00" departPos="245.65" arrivalPos="3.15" arrivalSpeed="0.00" from="101" to="312"/>
    <trip id="randUni1072:1" type="random" depart="3309.00" departPos="3.06" arrivalPos="1533.83" arrivalSpeed="0.00" from="147" to="-125"/>
    <trip id="randUni3279:1" type="random" depart="3335.00" departPos="9.06" arrivalPos="0.11" arrivalSpeed="0.00" from="174" to="269"/>
    <trip id="randUni8830:1" type="random" depart="3351.00" departPos="173.84" arrivalPos="92.18" arrivalSpeed="0.00" from="-33" to="325"/>
    <trip id="randUni5243:1" type="random" depart="3386.00" departPos="833.55" arrivalPos="580.69" arrivalSpeed="0.00" from="73" to="-25"/>
    <trip id="randUni3987:1" type="random" depart="3417.00" departPos="0.13" arrivalPos="0.82" arrivalSpeed="0.00" from="286" to="-167"/>
    <trip id="randUni8402:1" type="random" depart="3427.00" departPos="328.13" arrivalPos="8.00" arrivalSpeed="0.00" from="-54" to="-9"/>
    <trip id="randUni4172:1" type="random" depart="3440.00" departPos="6.16" arrivalPos="4.48" arrivalSpeed="0.00" from="352" to="-254"/>
    <trip id="randUni8966:1" type="random" depart="3476.00" departPos="1195.86" arrivalPos="7.80" arrivalSpeed="0.00" from="-39" to="-227"/>
    <trip id="randUni1804:1" type="random" depart="3477.00" departPos="6.65" arrivalPos="209.13" arrivalSpeed="0.00" from="199" to="91"/>
    <trip id="randUni389:1" type="random" depart="3491.00" departPos="724.54" arrivalPos="38.66" arrivalSpeed="0.00" from="-68" to="296"/>
    <trip id="randUni8863:1" type="random" depart="3540.00" departPos="139.69" arrivalPos="130.80" arrivalSpeed="0.00" from="84" to="-372"/>
    <trip id="randUni3281:1" type="random" depart="3542.00" departPos="202.72" arrivalPos="15.29" arrivalSpeed="0.00" from="105" to="-186"/>
    <trip id="randUni5449:1" type="random" depart="3584.00" departPos="4.88" arrivalPos="3.28" arrivalSpeed="0.00" from="343" to="312"/>
    <trip id="randUni1490:1" type="random" depart="3587.00" departPos="1.52" arrivalPos="189.97" arrivalSpeed="0.00" from="-305" to="-26"/>
    <trip id="randUni7648:1" type="random" depart="3611.00" departPos="2.79" arrivalPos="22.69" arrivalSpeed="0.00" from="284" to="-239"/>
    <trip id="randUni3786:1" type="random" depart="3612.00" departPos="31.21" arrivalPos="23.22" arrivalSpeed="0.00" from="-282" to="-229"/>
    <trip id="randUni6529:1" type="random" depart="3625.00" departPos="213.86" arrivalPos="28.39" arrivalSpeed="0.00" from="-96" to="357"/>
    <trip id="randUni1952:1" type="random" depart="3629.00" departPos="33.26" arrivalPos="285.59" arrivalSpeed="0.00" from="282" to="-64"/>
    <trip id="randUni8921:1" type="random" depart="3631.00" departPos="5.79" arrivalPos="26.68" arrivalSpeed="0.00" from="-217" to="166"/>